version 2
run Cellular-0-20170208-12:17:21-14637
attr configname Cellular
attr datetime 20170208-12:17:21
attr experiment Cellular
attr inifile omnetpp.ini
attr iterationvars ""
attr iterationvars2 $repetition=0
attr measurement ""
attr network playground.SingleCell_D2D
attr processid 14637
attr repetition 0
attr replication #0
attr resultdir results
attr runnumber 0
attr seedset 0
param **.**.amcMode "\"AUTO\""
param **.channelControl.alpha 1.0
param **.channelControl.carrierFrequency 2100e+6Hz
param **.channelControl.pMax 10W
param **.deployer.numRbDl 50
param **.deployer.numRbUl 50
param **.fbDelay 1
param **.feedbackComputation "xmldoc(\"config_channel.xml\")"
param **.mobility.constraintAreaMaxZ 0m
param **.mobility.constraintAreaMinZ 0m
param **.nic.phy.channelModel "xmldoc(\"config_channel.xml\")"
param **.numBands 50
param **.rbAllocationType "\"localized\""
param **.routingRecorder.enabled false
param **.tcp.advertisedWindow 1460000
param **.tcp.mss 1460
param **.tcp.tcpAlgorithmClass "\"TCPNewReno\""
param **.tcp.windowScalingSupport true
param **.tcpApp[*].dataTransferMode "\"object\""
param **.tcpApp[*].tClose -1s
param **.tcpType "\"TCP\""
param *.eNodeB.d2dCapable false
param *.eNodeB.mobility.initFromDisplayString false
param *.eNodeB.mobility.initialX 300m
param *.eNodeB.mobility.initialY 300m
param *.numUeCell 0
param *.numUeD2DRx 1
param *.numUeD2DTx 1
param *.ue*[0].macCellId 1
param *.ue*[0].masterId 1
param *.ue*[0].mobility.initFromDisplayString false
param *.ueD2D*[0].d2dCapable false
param *.ueD2D*[0].numTcpApps 1
param *.ueD2DRx[0].mobility.initialX 310m
param *.ueD2DRx[0].mobility.initialY 350m
param *.ueD2DRx[0].tcpApp[*].localPort 1000
param *.ueD2DRx[0].tcpApp[*].typename "\"TCPGenericSrvApp\""
param *.ueD2DTx[0].mobility.initialX 290m
param *.ueD2DTx[0].mobility.initialY 350m
param *.ueD2DTx[0].tcpApp[0].connectAddress "\"ueD2DRx[0]\""
param *.ueD2DTx[0].tcpApp[0].connectPort 1000
param *.ueD2DTx[0].tcpApp[0].idleInterval exponential(1s)
param *.ueD2DTx[0].tcpApp[0].replyLength exponential(250kB)
param *.ueD2DTx[0].tcpApp[0].requestLength 750B
param *.ueD2DTx[0].tcpApp[0].thinkTime 0s
param *.ueD2DTx[0].tcpApp[0].typename "\"TCPBasicClientApp\""

vector 8  SingleCell_D2D.server.ppp[0].queue  queueLength:vector  ETV
attr interpolationmode  sample-hold
attr title  "queue length, vector"
vector 9  SingleCell_D2D.server.ppp[0].ppp  txState:vector  ETV
attr interpolationmode  sample-hold
attr title  "tx state, vector"
vector 24  SingleCell_D2D.router.ppp[0].queue  queueLength:vector  ETV
attr interpolationmode  sample-hold
attr title  "queue length, vector"
vector 25  SingleCell_D2D.router.ppp[0].ppp  txState:vector  ETV
attr interpolationmode  sample-hold
attr title  "tx state, vector"
vector 35  SingleCell_D2D.router.ppp[1].queue  queueLength:vector  ETV
attr interpolationmode  sample-hold
attr title  "queue length, vector"
vector 36  SingleCell_D2D.router.ppp[1].ppp  txState:vector  ETV
attr interpolationmode  sample-hold
attr title  "tx state, vector"
vector 56  SingleCell_D2D.pgw.ppp[0].queue  queueLength:vector  ETV
attr interpolationmode  sample-hold
attr title  "queue length, vector"
vector 57  SingleCell_D2D.pgw.ppp[0].ppp  txState:vector  ETV
attr interpolationmode  sample-hold
attr title  "tx state, vector"
vector 67  SingleCell_D2D.pgw.pppInterface.queue  queueLength:vector  ETV
attr interpolationmode  sample-hold
attr title  "queue length, vector"
vector 68  SingleCell_D2D.pgw.pppInterface.ppp  txState:vector  ETV
attr interpolationmode  sample-hold
attr title  "tx state, vector"
vector 95  SingleCell_D2D.eNodeB.ppp.queue  queueLength:vector  ETV
attr interpolationmode  sample-hold
attr title  "queue length, vector"
vector 96  SingleCell_D2D.eNodeB.ppp.ppp  txState:vector  ETV
attr interpolationmode  sample-hold
attr title  "tx state, vector"
vector 85  SingleCell_D2D.eNodeB.nic.mac  receivedPacketFromLowerLayer:vector(packetBytes)  ETV
attr interpolationmode  none
attr source  receivedPacketFromLowerLayer
vector 108  SingleCell_D2D.ueD2DTx[0].tcpApp[0]  numActiveSessions:vector  ETV
attr interpolationmode  sample-hold
attr source  sum(connect)
attr title  "number of active sessions, vector"
vector 181  SingleCell_D2D.ueD2DTx[0].tcp  tcpRcvQueueBytes  ETV
vector 168  SingleCell_D2D.ueD2DTx[0].tcp  "advertised window"  ETV
vector 167  SingleCell_D2D.ueD2DTx[0].tcp  "receive window"  ETV
vector 170  SingleCell_D2D.ueD2DTx[0].tcp  "sent ack"  ETV
vector 109  SingleCell_D2D.ueD2DTx[0].nic.pdcpRrc  receivedPacketFromUpperLayer:vector(packetBytes)  ETV
attr interpolationmode  none
attr source  receivedPacketFromUpperLayer
vector 112  SingleCell_D2D.ueD2DTx[0].nic.pdcpRrc  sentPacketToLowerLayer:vector(packetBytes)  ETV
attr interpolationmode  none
attr source  sentPacketToLowerLayer
vector 113  SingleCell_D2D.ueD2DTx[0].nic.mac  receivedPacketFromUpperLayer:vector(packetBytes)  ETV
attr interpolationmode  none
attr source  receivedPacketFromUpperLayer
vector 116  SingleCell_D2D.ueD2DTx[0].nic.mac  sentPacketToLowerLayer:vector(packetBytes)  ETV
attr interpolationmode  none
attr source  sentPacketToLowerLayer
vector 87  SingleCell_D2D.eNodeB.nic.mac  sentPacketToLowerLayer:vector(packetBytes)  ETV
attr interpolationmode  none
attr source  sentPacketToLowerLayer
vector 114  SingleCell_D2D.ueD2DTx[0].nic.mac  receivedPacketFromLowerLayer:vector(packetBytes)  ETV
attr interpolationmode  none
attr source  receivedPacketFromLowerLayer
vector 115  SingleCell_D2D.ueD2DTx[0].nic.mac  sentPacketToUpperLayer:vector(packetBytes)  ETV
attr interpolationmode  none
attr source  sentPacketToUpperLayer
vector 90  SingleCell_D2D.eNodeB.nic.phy  averageCqiUlvect:vector  ETV
attr source  averageCqiUlvect
attr title  "Average Cqi reported in UL, vector"
attr unit  cqi
vector 86  SingleCell_D2D.eNodeB.nic.mac  sentPacketToUpperLayer:vector(packetBytes)  ETV
attr interpolationmode  none
attr source  sentPacketToUpperLayer
vector 88  SingleCell_D2D.eNodeB.nic.mac  measuredItbs:vector  ETV
attr source  measuredItbs
attr title  "TBS index, vector"
attr unit  ""
vector 81  SingleCell_D2D.eNodeB.nic.pdcpRrc  receivedPacketFromLowerLayer:vector(packetBytes)  ETV
attr interpolationmode  none
attr source  receivedPacketFromLowerLayer
vector 82  SingleCell_D2D.eNodeB.nic.pdcpRrc  sentPacketToUpperLayer:vector(packetBytes)  ETV
attr interpolationmode  none
attr source  sentPacketToUpperLayer
vector 80  SingleCell_D2D.eNodeB.nic.pdcpRrc  receivedPacketFromUpperLayer:vector(packetBytes)  ETV
attr interpolationmode  none
attr source  receivedPacketFromUpperLayer
vector 83  SingleCell_D2D.eNodeB.nic.pdcpRrc  sentPacketToLowerLayer:vector(packetBytes)  ETV
attr interpolationmode  none
attr source  sentPacketToLowerLayer
vector 84  SingleCell_D2D.eNodeB.nic.mac  receivedPacketFromUpperLayer:vector(packetBytes)  ETV
attr interpolationmode  none
attr source  receivedPacketFromUpperLayer
vector 136  SingleCell_D2D.ueD2DRx[0].nic.phy  averageCqiDlvect:vector  ETV
attr source  averageCqiDlvect
attr title  "Average Cqi reported in DL, vector"
attr unit  cqi
vector 132  SingleCell_D2D.ueD2DRx[0].nic.mac  receivedPacketFromLowerLayer:vector(packetBytes)  ETV
attr interpolationmode  none
attr source  receivedPacketFromLowerLayer
vector 134  SingleCell_D2D.ueD2DRx[0].nic.mac  sentPacketToLowerLayer:vector(packetBytes)  ETV
attr interpolationmode  none
attr source  sentPacketToLowerLayer
vector 133  SingleCell_D2D.ueD2DRx[0].nic.mac  sentPacketToUpperLayer:vector(packetBytes)  ETV
attr interpolationmode  none
attr source  sentPacketToUpperLayer
vector 128  SingleCell_D2D.ueD2DRx[0].nic.pdcpRrc  receivedPacketFromLowerLayer:vector(packetBytes)  ETV
attr interpolationmode  none
attr source  receivedPacketFromLowerLayer
vector 129  SingleCell_D2D.ueD2DRx[0].nic.pdcpRrc  sentPacketToUpperLayer:vector(packetBytes)  ETV
attr interpolationmode  none
attr source  sentPacketToUpperLayer
vector 147  SingleCell_D2D.ueD2DRx[0].tcp  "rcvd seq"  ETV
vector 148  SingleCell_D2D.ueD2DRx[0].tcp  "rcvd ack"  ETV
vector 144  SingleCell_D2D.ueD2DRx[0].tcp  "advertised window"  ETV
vector 142  SingleCell_D2D.ueD2DRx[0].tcp  "send window"  ETV
vector 157  SingleCell_D2D.ueD2DRx[0].tcp  tcpRcvQueueBytes  ETV
vector 143  SingleCell_D2D.ueD2DRx[0].tcp  "receive window"  ETV
vector 146  SingleCell_D2D.ueD2DRx[0].tcp  "sent ack"  ETV
vector 127  SingleCell_D2D.ueD2DRx[0].nic.pdcpRrc  receivedPacketFromUpperLayer:vector(packetBytes)  ETV
attr interpolationmode  none
attr source  receivedPacketFromUpperLayer
vector 130  SingleCell_D2D.ueD2DRx[0].nic.pdcpRrc  sentPacketToLowerLayer:vector(packetBytes)  ETV
attr interpolationmode  none
attr source  sentPacketToLowerLayer
vector 131  SingleCell_D2D.ueD2DRx[0].nic.mac  receivedPacketFromUpperLayer:vector(packetBytes)  ETV
attr interpolationmode  none
attr source  receivedPacketFromUpperLayer
vector 118  SingleCell_D2D.ueD2DTx[0].nic.phy  averageCqiDlvect:vector  ETV
attr source  averageCqiDlvect
attr title  "Average Cqi reported in DL, vector"
attr unit  cqi
vector 110  SingleCell_D2D.ueD2DTx[0].nic.pdcpRrc  receivedPacketFromLowerLayer:vector(packetBytes)  ETV
attr interpolationmode  none
attr source  receivedPacketFromLowerLayer
vector 111  SingleCell_D2D.ueD2DTx[0].nic.pdcpRrc  sentPacketToUpperLayer:vector(packetBytes)  ETV
attr interpolationmode  none
attr source  sentPacketToUpperLayer
vector 171  SingleCell_D2D.ueD2DTx[0].tcp  "rcvd seq"  ETV
vector 172  SingleCell_D2D.ueD2DTx[0].tcp  "rcvd ack"  ETV
vector 166  SingleCell_D2D.ueD2DTx[0].tcp  "send window"  ETV
vector 106  SingleCell_D2D.ueD2DTx[0].tcpApp[0]  sentPk:vector(packetBytes)  ETV
attr interpolationmode  none
attr source  sentPk
attr title  "packets sent, vector(packetBytes)"
vector 169  SingleCell_D2D.ueD2DTx[0].tcp  "sent seq"  ETV
vector 173  SingleCell_D2D.ueD2DTx[0].tcp  "unacked bytes"  ETV
vector 149  SingleCell_D2D.ueD2DRx[0].tcp  "unacked bytes"  ETV
vector 150  SingleCell_D2D.ueD2DRx[0].tcp  "rcvd dupAcks"  ETV
vector 124  SingleCell_D2D.ueD2DRx[0].tcpApp[0]  rcvdPk:vector(packetBytes)  ETV
attr interpolationmode  none
attr source  rcvdPk
attr title  "packets received, vector(packetBytes)"
vector 126  SingleCell_D2D.ueD2DRx[0].tcpApp[0]  endToEndDelay:vector  ETV
attr interpolationmode  none
attr source  messageAge(rcvdPk)
attr title  "end-to-end delay, vector"
attr unit  s
vector 125  SingleCell_D2D.ueD2DRx[0].tcpApp[0]  sentPk:vector(packetBytes)  ETV
attr interpolationmode  none
attr source  sentPk
attr title  "packets sent, vector(packetBytes)"
vector 145  SingleCell_D2D.ueD2DRx[0].tcp  "sent seq"  ETV
vector 185  SingleCell_D2D.ueD2DTx[0].tcp  "measured RTT"  ETV
vector 186  SingleCell_D2D.ueD2DTx[0].tcp  "smoothed RTT"  ETV
vector 187  SingleCell_D2D.ueD2DTx[0].tcp  RTTVAR  ETV
vector 188  SingleCell_D2D.ueD2DTx[0].tcp  RTO  ETV
vector 183  SingleCell_D2D.ueD2DTx[0].tcp  cwnd  ETV
vector 174  SingleCell_D2D.ueD2DTx[0].tcp  "rcvd dupAcks"  ETV
vector 161  SingleCell_D2D.ueD2DRx[0].tcp  "measured RTT"  ETV
vector 162  SingleCell_D2D.ueD2DRx[0].tcp  "smoothed RTT"  ETV
vector 163  SingleCell_D2D.ueD2DRx[0].tcp  RTTVAR  ETV
vector 164  SingleCell_D2D.ueD2DRx[0].tcp  RTO  ETV
vector 159  SingleCell_D2D.ueD2DRx[0].tcp  cwnd  ETV
vector 105  SingleCell_D2D.ueD2DTx[0].tcpApp[0]  rcvdPk:vector(packetBytes)  ETV
attr interpolationmode  none
attr source  rcvdPk
attr title  "packets received, vector(packetBytes)"
vector 107  SingleCell_D2D.ueD2DTx[0].tcpApp[0]  endToEndDelay:vector  ETV
attr interpolationmode  none
attr source  messageAge(rcvdPk)
attr title  "end-to-end delay, vector"
attr unit  s
159	6216	1.081	2920
159	6585	1.115	4380
159	6586	1.115	5840
159	7080	1.149	7300
159	7081	1.149	8760
159	7166	1.154	10220
159	7167	1.154	11680
159	7769	1.183	13140
159	7770	1.183	14600
159	7896	1.188	16060
159	7897	1.188	17520
159	7962	1.189	18980
159	7963	1.189	20440
159	8068	1.194	21900
159	8069	1.194	23360
159	8849	1.217	24820
159	8850	1.217	26280
159	8978	1.222	27740
159	8979	1.222	29200
159	9114	1.223	30660
159	9115	1.223	32120
159	9246	1.228	33580
159	9247	1.228	35040
159	9248	1.228	36500
159	9249	1.228	37960
159	9250	1.228	39420
159	9251	1.228	40880
159	9252	1.228	42340
159	9253	1.228	43800
159	9254	1.228	45260
159	9255	1.228	46720
159	10645	1.253	48180
159	10646	1.253	49640
159	10723	1.256	51100
159	10724	1.256	52560
159	10909	1.257	54020
159	10910	1.257	55480
159	11087	1.262	56940
159	11088	1.262	58400
159	11089	1.262	59860
159	11090	1.262	61320
159	11091	1.262	62780
159	11092	1.262	64240
159	11093	1.262	65700
159	11094	1.262	67160
159	11095	1.262	68620
159	11096	1.262	70080
159	11097	1.262	71540
159	11098	1.262	73000
159	11099	1.262	74460
159	11100	1.262	75920
159	11101	1.262	77380
159	11480	1.267	78840
159	11481	1.267	80300
159	11582	1.268	81760
159	11583	1.268	83220
159	11584	1.268	84680
159	11585	1.268	86140
159	11586	1.268	87600
159	11587	1.268	89060
159	11588	1.268	90520
159	11589	1.268	91980
159	11920	1.273	93440
159	13442	1.291	94900
159	13443	1.291	96360
159	13463	1.292	97820
159	13464	1.292	99280
159	13732	1.293	100740
159	13733	1.293	102200
159	13734	1.293	103660
159	13735	1.293	105120
159	13736	1.293	106580
159	13737	1.293	108040
159	13738	1.293	109500
159	13739	1.293	110960
159	13740	1.293	112420
159	13741	1.293	113880
159	13900	1.298	115340
159	13901	1.298	116800
159	13902	1.298	118260
159	13903	1.298	119720
159	13904	1.298	121180
159	13905	1.298	122640
159	13906	1.298	124100
159	13907	1.298	125560
159	13908	1.298	127020
159	13909	1.298	128480
159	13910	1.298	129940
159	13911	1.298	131400
159	13912	1.298	132860
159	13913	1.298	134320
159	13914	1.298	135780
159	13915	1.298	137240
159	13916	1.298	138700
159	13917	1.298	140160
159	13918	1.298	141620
159	13919	1.298	143080
159	13920	1.298	144540
159	13921	1.298	146000
159	13922	1.298	147460
159	13923	1.298	148920
159	14059	1.303	150380
159	14060	1.303	151840
159	14138	1.304	153300
159	14139	1.304	154760
159	14140	1.304	156220
159	14141	1.304	157680
159	14142	1.304	159140
159	14143	1.304	160600
159	14144	1.304	162060
159	14207	1.309	163520
159	14208	1.309	164980
159	14209	1.309	166440
159	14210	1.309	167900
159	14495	1.337	169360
161	6216	1.081	0.034
161	6585	1.115	0.034
161	7080	1.149	0.034
161	7769	1.183	0.034
161	8849	1.217	0.034
161	10645	1.253	0.036
161	13442	1.291	0.038
162	6216	1.081	0.00425
162	6585	1.115	0.00796875
162	7080	1.149	0.01122265625
162	7769	1.183	0.014069824219
162	8849	1.217	0.016561096192
162	10645	1.253	0.018990959168
162	13442	1.291	0.021367089272
163	6216	1.081	0.6605
163	6585	1.115	0.58165625
163	7080	1.149	0.512203125
163	7769	1.183	0.451024902344
163	8849	1.217	0.397138061524
163	10645	1.253	0.34992566681
163	13442	1.291	0.308561088563
164	6216	1.081	2.64625
164	6585	1.115	2.33459375
164	7080	1.149	2.06003515625
164	7769	1.183	1.818169433595
164	8849	1.217	1.605113342288
164	10645	1.253	1.418693626408
164	13442	1.291	1.255611443524
142	5481	1.013	65535
142	5783	1.041	1460000
142	6216	1.081	1460000
142	6585	1.115	1460000
142	6586	1.115	1460000
142	7080	1.149	1460000
142	7081	1.149	1460000
142	7166	1.154	1460000
142	7167	1.154	1460000
142	7769	1.183	1460000
142	7770	1.183	1460000
142	7896	1.188	1460000
142	7897	1.188	1460000
142	7962	1.189	1460000
142	7963	1.189	1460000
142	8068	1.194	1460000
142	8069	1.194	1460000
142	8849	1.217	1460000
142	8850	1.217	1460000
142	8978	1.222	1460000
142	8979	1.222	1460000
142	9114	1.223	1460000
142	9115	1.223	1460000
142	9246	1.228	1460000
142	9247	1.228	1460000
142	9248	1.228	1460000
142	9249	1.228	1460000
142	9250	1.228	1460000
142	9251	1.228	1460000
142	9252	1.228	1460000
142	9253	1.228	1460000
142	9254	1.228	1460000
142	9255	1.228	1460000
142	10645	1.253	1460000
142	10646	1.253	1460000
142	10723	1.256	1460000
142	10724	1.256	1460000
142	10909	1.257	1460000
142	10910	1.257	1460000
142	11087	1.262	1460000
142	11088	1.262	1460000
142	11089	1.262	1460000
142	11090	1.262	1460000
142	11091	1.262	1460000
142	11092	1.262	1460000
142	11093	1.262	1460000
142	11094	1.262	1460000
142	11095	1.262	1460000
142	11096	1.262	1460000
142	11097	1.262	1460000
142	11098	1.262	1460000
142	11099	1.262	1460000
142	11100	1.262	1460000
142	11101	1.262	1460000
142	11480	1.267	1460000
142	11481	1.267	1460000
142	11582	1.268	1460000
142	11583	1.268	1460000
142	11584	1.268	1460000
142	11585	1.268	1460000
142	11586	1.268	1460000
142	11587	1.268	1460000
142	11588	1.268	1460000
142	11589	1.268	1460000
142	11920	1.273	1460000
142	13442	1.291	1460000
142	13443	1.291	1460000
142	13463	1.292	1460000
142	13464	1.292	1460000
142	13732	1.293	1460000
142	13733	1.293	1460000
142	13734	1.293	1460000
142	13735	1.293	1460000
142	13736	1.293	1460000
142	13737	1.293	1460000
142	13738	1.293	1460000
142	13739	1.293	1460000
142	13740	1.293	1460000
142	13741	1.293	1460000
142	13900	1.298	1460000
142	13901	1.298	1460000
142	13902	1.298	1460000
142	13903	1.298	1460000
142	13904	1.298	1460000
142	13905	1.298	1460000
142	13906	1.298	1460000
142	13907	1.298	1460000
142	13908	1.298	1460000
142	13909	1.298	1460000
142	13910	1.298	1460000
142	13911	1.298	1460000
142	13912	1.298	1460000
142	13913	1.298	1460000
142	13914	1.298	1460000
142	13915	1.298	1460000
142	13916	1.298	1460000
142	13917	1.298	1460000
142	13918	1.298	1460000
142	13919	1.298	1460000
142	13920	1.298	1460000
142	13921	1.298	1460000
142	13922	1.298	1460000
142	13923	1.298	1460000
142	14059	1.303	1460000
142	14060	1.303	1460000
142	14138	1.304	1460000
142	14139	1.304	1460000
142	14140	1.304	1460000
142	14141	1.304	1460000
142	14142	1.304	1460000
142	14143	1.304	1460000
142	14144	1.304	1460000
142	14207	1.309	1460000
142	14208	1.309	1460000
142	14209	1.309	1460000
142	14210	1.309	1460000
142	14495	1.337	1460000
143	5481	1.013	65535
143	5851	1.047	1460000
143	5854	1.047	1460000
143	6216	1.081	1460000
143	6216	1.081	1460000
143	6585	1.115	1460000
143	6585	1.115	1460000
143	6586	1.115	1460000
143	6586	1.115	1460000
143	7080	1.149	1460000
143	7080	1.149	1460000
143	7081	1.149	1460000
143	7081	1.149	1460000
143	7166	1.154	1460000
143	7166	1.154	1460000
143	7167	1.154	1460000
143	7167	1.154	1460000
143	7769	1.183	1460000
143	7769	1.183	1460000
143	7770	1.183	1460000
143	7770	1.183	1460000
143	7896	1.188	1460000
143	7896	1.188	1460000
143	7897	1.188	1460000
143	7897	1.188	1460000
143	7962	1.189	1460000
143	7962	1.189	1460000
143	7963	1.189	1460000
143	7963	1.189	1460000
143	8068	1.194	1460000
143	8068	1.194	1460000
143	8069	1.194	1460000
143	8069	1.194	1460000
143	8849	1.217	1460000
143	8849	1.217	1460000
143	8850	1.217	1460000
143	8850	1.217	1460000
143	8978	1.222	1460000
143	8978	1.222	1460000
143	8979	1.222	1460000
143	8979	1.222	1460000
143	9114	1.223	1460000
143	9114	1.223	1460000
143	9115	1.223	1460000
143	9115	1.223	1460000
143	9246	1.228	1460000
143	9246	1.228	1460000
143	9247	1.228	1460000
143	9247	1.228	1460000
143	9248	1.228	1460000
143	9248	1.228	1460000
143	9249	1.228	1460000
143	9249	1.228	1460000
143	9250	1.228	1460000
143	9250	1.228	1460000
143	9251	1.228	1460000
143	9251	1.228	1460000
143	9252	1.228	1460000
143	9252	1.228	1460000
143	9253	1.228	1460000
143	9253	1.228	1460000
143	9254	1.228	1460000
143	9254	1.228	1460000
143	9255	1.228	1460000
143	9255	1.228	1460000
143	10645	1.253	1460000
143	10645	1.253	1460000
143	10646	1.253	1460000
143	10646	1.253	1460000
143	10723	1.256	1460000
143	10723	1.256	1460000
143	10724	1.256	1460000
143	10724	1.256	1460000
143	10909	1.257	1460000
143	10909	1.257	1460000
143	10910	1.257	1460000
143	10910	1.257	1460000
143	11087	1.262	1460000
143	11087	1.262	1460000
143	11088	1.262	1460000
143	11088	1.262	1460000
143	11089	1.262	1460000
143	11089	1.262	1460000
143	11090	1.262	1460000
143	11090	1.262	1460000
143	11091	1.262	1460000
143	11091	1.262	1460000
143	11092	1.262	1460000
143	11092	1.262	1460000
143	11093	1.262	1460000
143	11093	1.262	1460000
143	11094	1.262	1460000
143	11094	1.262	1460000
143	11095	1.262	1460000
143	11095	1.262	1460000
143	11096	1.262	1460000
143	11096	1.262	1460000
143	11097	1.262	1460000
143	11097	1.262	1460000
143	11098	1.262	1460000
143	11098	1.262	1460000
143	11099	1.262	1460000
143	11099	1.262	1460000
143	11100	1.262	1460000
143	11100	1.262	1460000
143	11101	1.262	1460000
143	11101	1.262	1460000
143	11480	1.267	1460000
143	11480	1.267	1460000
143	11481	1.267	1460000
143	11481	1.267	1460000
143	11582	1.268	1460000
143	11582	1.268	1460000
143	11583	1.268	1460000
143	11583	1.268	1460000
143	11584	1.268	1460000
143	14211	1.309	1460000
143	14215	1.309	1460000
144	5481	1.013	315536
144	5481	1.013	315536
144	5851	1.047	1710751
144	5854	1.047	1710751
144	6216	1.081	1710751
144	6216	1.081	1710751
144	6585	1.115	1710751
144	6585	1.115	1710751
144	6586	1.115	1710751
144	6586	1.115	1710751
144	7080	1.149	1710751
144	7080	1.149	1710751
144	7081	1.149	1710751
144	7081	1.149	1710751
144	7166	1.154	1710751
144	7166	1.154	1710751
144	7167	1.154	1710751
144	7167	1.154	1710751
144	7769	1.183	1710751
144	7769	1.183	1710751
144	7770	1.183	1710751
144	7770	1.183	1710751
144	7896	1.188	1710751
144	7896	1.188	1710751
144	7897	1.188	1710751
144	7897	1.188	1710751
144	7962	1.189	1710751
144	7962	1.189	1710751
144	7963	1.189	1710751
144	7963	1.189	1710751
144	8068	1.194	1710751
144	8068	1.194	1710751
144	8069	1.194	1710751
144	8069	1.194	1710751
144	8849	1.217	1710751
144	8849	1.217	1710751
144	8850	1.217	1710751
144	8850	1.217	1710751
144	8978	1.222	1710751
144	8978	1.222	1710751
144	8979	1.222	1710751
144	8979	1.222	1710751
144	9114	1.223	1710751
144	9114	1.223	1710751
144	9115	1.223	1710751
144	9115	1.223	1710751
144	9246	1.228	1710751
144	9246	1.228	1710751
144	9247	1.228	1710751
144	9247	1.228	1710751
144	9248	1.228	1710751
144	9248	1.228	1710751
144	9249	1.228	1710751
144	9249	1.228	1710751
144	9250	1.228	1710751
144	9250	1.228	1710751
144	9251	1.228	1710751
144	9251	1.228	1710751
144	9252	1.228	1710751
144	9252	1.228	1710751
144	9253	1.228	1710751
144	9253	1.228	1710751
144	9254	1.228	1710751
144	9254	1.228	1710751
144	9255	1.228	1710751
144	9255	1.228	1710751
144	10645	1.253	1710751
144	10645	1.253	1710751
144	10646	1.253	1710751
144	10646	1.253	1710751
144	10723	1.256	1710751
144	10723	1.256	1710751
144	10724	1.256	1710751
144	10724	1.256	1710751
144	10909	1.257	1710751
144	10909	1.257	1710751
144	10910	1.257	1710751
144	10910	1.257	1710751
144	11087	1.262	1710751
144	11087	1.262	1710751
144	11088	1.262	1710751
144	11088	1.262	1710751
144	11089	1.262	1710751
144	11089	1.262	1710751
144	11090	1.262	1710751
144	11090	1.262	1710751
144	11091	1.262	1710751
144	11091	1.262	1710751
144	11092	1.262	1710751
144	11092	1.262	1710751
144	11093	1.262	1710751
144	11093	1.262	1710751
144	11094	1.262	1710751
144	11094	1.262	1710751
144	11095	1.262	1710751
144	11095	1.262	1710751
144	11096	1.262	1710751
144	11096	1.262	1710751
144	11097	1.262	1710751
144	11097	1.262	1710751
144	11098	1.262	1710751
144	11098	1.262	1710751
144	11099	1.262	1710751
144	11099	1.262	1710751
144	11100	1.262	1710751
144	11100	1.262	1710751
144	11101	1.262	1710751
144	11101	1.262	1710751
144	11480	1.267	1710751
144	11480	1.267	1710751
144	11481	1.267	1710751
144	11481	1.267	1710751
144	11582	1.268	1710751
144	11582	1.268	1710751
144	11583	1.268	1710751
144	11583	1.268	1710751
144	11584	1.268	1710751
144	14211	1.309	1710752
144	14215	1.309	1710752
145	5854	1.047	253250
145	6216	1.081	254710
145	6216	1.081	256170
145	6585	1.115	257630
145	6585	1.115	259090
145	6586	1.115	260550
145	6586	1.115	262010
145	7080	1.149	263470
145	7080	1.149	264930
145	7081	1.149	266390
145	7081	1.149	267850
145	7166	1.154	269310
145	7166	1.154	270770
145	7167	1.154	272230
145	7167	1.154	273690
145	7769	1.183	275150
145	7769	1.183	276610
145	7770	1.183	278070
145	7770	1.183	279530
145	7896	1.188	280990
145	7896	1.188	282450
145	7897	1.188	283910
145	7897	1.188	285370
145	7962	1.189	286830
145	7962	1.189	288290
145	7963	1.189	289750
145	7963	1.189	291210
145	8068	1.194	292670
145	8068	1.194	294130
145	8069	1.194	295590
145	8069	1.194	297050
145	8849	1.217	298510
145	8849	1.217	299970
145	8850	1.217	301430
145	8850	1.217	302890
145	8978	1.222	304350
145	8978	1.222	305810
145	8979	1.222	307270
145	8979	1.222	308730
145	9114	1.223	310190
145	9114	1.223	311650
145	9115	1.223	313110
145	9115	1.223	314570
145	9246	1.228	316030
145	9246	1.228	317490
145	9247	1.228	318950
145	9247	1.228	320410
145	9248	1.228	321870
145	9248	1.228	323330
145	9249	1.228	324790
145	9249	1.228	326250
145	9250	1.228	327710
145	9250	1.228	329170
145	9251	1.228	330630
145	9251	1.228	332090
145	9252	1.228	333550
145	9252	1.228	335010
145	9253	1.228	336470
145	9253	1.228	337930
145	9254	1.228	339390
145	9254	1.228	340850
145	9255	1.228	342310
145	9255	1.228	343770
145	10645	1.253	345230
145	10645	1.253	346690
145	10646	1.253	348150
145	10646	1.253	349610
145	10723	1.256	351070
145	10723	1.256	352530
145	10724	1.256	353990
145	10724	1.256	355450
145	10909	1.257	356910
145	10909	1.257	358370
145	10910	1.257	359830
145	10910	1.257	361290
145	11087	1.262	362750
145	11087	1.262	364210
145	11088	1.262	365670
145	11088	1.262	367130
145	11089	1.262	368590
145	11089	1.262	370050
145	11090	1.262	371510
145	11090	1.262	372970
145	11091	1.262	374430
145	11091	1.262	375890
145	11092	1.262	377350
145	11092	1.262	378810
145	11093	1.262	380270
145	11093	1.262	381730
145	11094	1.262	383190
145	11094	1.262	384650
145	11095	1.262	386110
145	11095	1.262	387570
145	11096	1.262	389030
145	11096	1.262	390490
145	11097	1.262	391950
145	11097	1.262	393410
145	11098	1.262	394870
145	11098	1.262	396330
145	11099	1.262	397790
145	11099	1.262	399250
145	11100	1.262	400710
145	11100	1.262	402170
145	11101	1.262	403630
145	11101	1.262	405090
145	11480	1.267	406550
145	11480	1.267	408010
145	11481	1.267	409470
145	11481	1.267	410930
145	11582	1.268	412390
145	11582	1.268	413850
145	11583	1.268	415310
145	11583	1.268	416770
145	11584	1.268	418230
146	5481	1.013	250001
146	5851	1.047	250751
146	5854	1.047	250751
146	6216	1.081	250751
146	6216	1.081	250751
146	6585	1.115	250751
146	6585	1.115	250751
146	6586	1.115	250751
146	6586	1.115	250751
146	7080	1.149	250751
146	7080	1.149	250751
146	7081	1.149	250751
146	7081	1.149	250751
146	7166	1.154	250751
146	7166	1.154	250751
146	7167	1.154	250751
146	7167	1.154	250751
146	7769	1.183	250751
146	7769	1.183	250751
146	7770	1.183	250751
146	7770	1.183	250751
146	7896	1.188	250751
146	7896	1.188	250751
146	7897	1.188	250751
146	7897	1.188	250751
146	7962	1.189	250751
146	7962	1.189	250751
146	7963	1.189	250751
146	7963	1.189	250751
146	8068	1.194	250751
146	8068	1.194	250751
146	8069	1.194	250751
146	8069	1.194	250751
146	8849	1.217	250751
146	8849	1.217	250751
146	8850	1.217	250751
146	8850	1.217	250751
146	8978	1.222	250751
146	8978	1.222	250751
146	8979	1.222	250751
146	8979	1.222	250751
146	9114	1.223	250751
146	9114	1.223	250751
146	9115	1.223	250751
146	9115	1.223	250751
146	9246	1.228	250751
146	9246	1.228	250751
146	9247	1.228	250751
146	9247	1.228	250751
146	9248	1.228	250751
146	9248	1.228	250751
146	9249	1.228	250751
146	9249	1.228	250751
146	9250	1.228	250751
146	9250	1.228	250751
146	9251	1.228	250751
146	9251	1.228	250751
146	9252	1.228	250751
146	9252	1.228	250751
146	9253	1.228	250751
146	9253	1.228	250751
146	9254	1.228	250751
146	9254	1.228	250751
146	9255	1.228	250751
146	9255	1.228	250751
146	10645	1.253	250751
146	10645	1.253	250751
146	10646	1.253	250751
146	10646	1.253	250751
146	10723	1.256	250751
146	10723	1.256	250751
146	10724	1.256	250751
146	10724	1.256	250751
146	10909	1.257	250751
146	10909	1.257	250751
146	10910	1.257	250751
146	10910	1.257	250751
146	11087	1.262	250751
146	11087	1.262	250751
146	11088	1.262	250751
146	11088	1.262	250751
146	11089	1.262	250751
146	11089	1.262	250751
146	11090	1.262	250751
146	11090	1.262	250751
146	11091	1.262	250751
146	11091	1.262	250751
146	11092	1.262	250751
146	11092	1.262	250751
146	11093	1.262	250751
146	11093	1.262	250751
146	11094	1.262	250751
146	11094	1.262	250751
146	11095	1.262	250751
146	11095	1.262	250751
146	11096	1.262	250751
146	11096	1.262	250751
146	11097	1.262	250751
146	11097	1.262	250751
146	11098	1.262	250751
146	11098	1.262	250751
146	11099	1.262	250751
146	11099	1.262	250751
146	11100	1.262	250751
146	11100	1.262	250751
146	11101	1.262	250751
146	11101	1.262	250751
146	11480	1.267	250751
146	11480	1.267	250751
146	11481	1.267	250751
146	11481	1.267	250751
146	11582	1.268	250751
146	11582	1.268	250751
146	11583	1.268	250751
146	11583	1.268	250751
146	11584	1.268	250751
146	14211	1.309	250752
146	14215	1.309	250752
147	5481	1.013	250000
147	5783	1.041	250001
147	5851	1.047	250001
147	6216	1.081	250751
147	6585	1.115	250751
147	6586	1.115	250751
147	7080	1.149	250751
147	7081	1.149	250751
147	7166	1.154	250751
147	7167	1.154	250751
147	7769	1.183	250751
147	7770	1.183	250751
147	7896	1.188	250751
147	7897	1.188	250751
147	7962	1.189	250751
147	7963	1.189	250751
147	8068	1.194	250751
147	8069	1.194	250751
147	8849	1.217	250751
147	8850	1.217	250751
147	8978	1.222	250751
147	8979	1.222	250751
147	9114	1.223	250751
147	9115	1.223	250751
147	9246	1.228	250751
147	9247	1.228	250751
147	9248	1.228	250751
147	9249	1.228	250751
147	9250	1.228	250751
147	9251	1.228	250751
147	9252	1.228	250751
147	9253	1.228	250751
147	9254	1.228	250751
147	9255	1.228	250751
147	10645	1.253	250751
147	10646	1.253	250751
147	10723	1.256	250751
147	10724	1.256	250751
147	10909	1.257	250751
147	10910	1.257	250751
147	11087	1.262	250751
147	11088	1.262	250751
147	11089	1.262	250751
147	11090	1.262	250751
147	11091	1.262	250751
147	11092	1.262	250751
147	11093	1.262	250751
147	11094	1.262	250751
147	11095	1.262	250751
147	11096	1.262	250751
147	11097	1.262	250751
147	11098	1.262	250751
147	11099	1.262	250751
147	11100	1.262	250751
147	11101	1.262	250751
147	11480	1.267	250751
147	11481	1.267	250751
147	11582	1.268	250751
147	11583	1.268	250751
147	11584	1.268	250751
147	11585	1.268	250751
147	11586	1.268	250751
147	11587	1.268	250751
147	11588	1.268	250751
147	11589	1.268	250751
147	11920	1.273	250751
147	13442	1.291	250751
147	13443	1.291	250751
147	13463	1.292	250751
147	13464	1.292	250751
147	13732	1.293	250751
147	13733	1.293	250751
147	13734	1.293	250751
147	13735	1.293	250751
147	13736	1.293	250751
147	13737	1.293	250751
147	13738	1.293	250751
147	13739	1.293	250751
147	13740	1.293	250751
147	13741	1.293	250751
147	13900	1.298	250751
147	13901	1.298	250751
147	13902	1.298	250751
147	13903	1.298	250751
147	13904	1.298	250751
147	13905	1.298	250751
147	13906	1.298	250751
147	13907	1.298	250751
147	13908	1.298	250751
147	13909	1.298	250751
147	13910	1.298	250751
147	13911	1.298	250751
147	13912	1.298	250751
147	13913	1.298	250751
147	13914	1.298	250751
147	13915	1.298	250751
147	13916	1.298	250751
147	13917	1.298	250751
147	13918	1.298	250751
147	13919	1.298	250751
147	13920	1.298	250751
147	13921	1.298	250751
147	13922	1.298	250751
147	13923	1.298	250751
147	14059	1.303	250751
147	14060	1.303	250751
147	14138	1.304	250751
147	14139	1.304	250751
147	14140	1.304	250751
147	14141	1.304	250751
147	14142	1.304	250751
147	14143	1.304	250751
147	14144	1.304	250751
147	14207	1.309	250751
147	14208	1.309	250751
147	14209	1.309	250751
147	14210	1.309	250751
147	14211	1.309	250751
147	14495	1.337	250752
148	5481	1.013	0
148	5783	1.041	253250
148	5851	1.047	253250
148	6216	1.081	254710
148	6585	1.115	256170
148	6586	1.115	257630
148	7080	1.149	259090
148	7081	1.149	260550
148	7166	1.154	262010
148	7167	1.154	263470
148	7769	1.183	264930
148	7770	1.183	266390
148	7896	1.188	267850
148	7897	1.188	269310
148	7962	1.189	270770
148	7963	1.189	272230
148	8068	1.194	273690
148	8069	1.194	275150
148	8849	1.217	276610
148	8850	1.217	278070
148	8978	1.222	279530
148	8979	1.222	280990
148	9114	1.223	282450
148	9115	1.223	283910
148	9246	1.228	285370
148	9247	1.228	286830
148	9248	1.228	288290
148	9249	1.228	289750
148	9250	1.228	291210
148	9251	1.228	292670
148	9252	1.228	294130
148	9253	1.228	295590
148	9254	1.228	297050
148	9255	1.228	298510
148	10645	1.253	299970
148	10646	1.253	301430
148	10723	1.256	302890
148	10724	1.256	304350
148	10909	1.257	305810
148	10910	1.257	307270
148	11087	1.262	308730
148	11088	1.262	310190
148	11089	1.262	311650
148	11090	1.262	313110
148	11091	1.262	314570
148	11092	1.262	316030
148	11093	1.262	317490
148	11094	1.262	318950
148	11095	1.262	320410
148	11096	1.262	321870
148	11097	1.262	323330
148	11098	1.262	324790
148	11099	1.262	326250
148	11100	1.262	327710
148	11101	1.262	329170
148	11480	1.267	330630
148	11481	1.267	332090
148	11582	1.268	333550
148	11583	1.268	335010
148	11584	1.268	336470
148	11585	1.268	337930
148	11586	1.268	339390
148	11587	1.268	340850
148	11588	1.268	342310
148	11589	1.268	343770
148	11920	1.273	345230
148	13442	1.291	346690
148	13443	1.291	348150
148	13463	1.292	349610
148	13464	1.292	351070
148	13732	1.293	352530
148	13733	1.293	353990
148	13734	1.293	355450
148	13735	1.293	356910
148	13736	1.293	358370
148	13737	1.293	359830
148	13738	1.293	361290
148	13739	1.293	362750
148	13740	1.293	364210
148	13741	1.293	365670
148	13900	1.298	367130
148	13901	1.298	368590
148	13902	1.298	370050
148	13903	1.298	371510
148	13904	1.298	372970
148	13905	1.298	374430
148	13906	1.298	375890
148	13907	1.298	377350
148	13908	1.298	378810
148	13909	1.298	380270
148	13910	1.298	381730
148	13911	1.298	383190
148	13912	1.298	384650
148	13913	1.298	386110
148	13914	1.298	387570
148	13915	1.298	389030
148	13916	1.298	390490
148	13917	1.298	391950
148	13918	1.298	393410
148	13919	1.298	394870
148	13920	1.298	396330
148	13921	1.298	397790
148	13922	1.298	399250
148	13923	1.298	400710
148	14059	1.303	402170
148	14060	1.303	403630
148	14138	1.304	405090
148	14139	1.304	406550
148	14140	1.304	408010
148	14141	1.304	409470
148	14142	1.304	410930
148	14143	1.304	412390
148	14144	1.304	413850
148	14207	1.309	415310
148	14208	1.309	416770
148	14209	1.309	418230
148	14210	1.309	419392
148	14211	1.309	419392
148	14495	1.337	419393
149	5783	1.041	0
149	5854	1.047	1460
149	6216	1.081	0
149	6216	1.081	2920
149	6585	1.115	1460
149	6585	1.115	4380
149	6586	1.115	2920
149	6586	1.115	5840
149	7080	1.149	4380
149	7080	1.149	7300
149	7081	1.149	5840
149	7081	1.149	8760
149	7166	1.154	7300
149	7166	1.154	10220
149	7167	1.154	8760
149	7167	1.154	11680
149	7769	1.183	10220
149	7769	1.183	13140
149	7770	1.183	11680
149	7770	1.183	14600
149	7896	1.188	13140
149	7896	1.188	16060
149	7897	1.188	14600
149	7897	1.188	17520
149	7962	1.189	16060
149	7962	1.189	18980
149	7963	1.189	17520
149	7963	1.189	20440
149	8068	1.194	18980
149	8068	1.194	21900
149	8069	1.194	20440
149	8069	1.194	23360
149	8849	1.217	21900
149	8849	1.217	24820
149	8850	1.217	23360
149	8850	1.217	26280
149	8978	1.222	24820
149	8978	1.222	27740
149	8979	1.222	26280
149	8979	1.222	29200
149	9114	1.223	27740
149	9114	1.223	30660
149	9115	1.223	29200
149	9115	1.223	32120
149	9246	1.228	30660
149	9246	1.228	33580
149	9247	1.228	32120
149	9247	1.228	35040
149	9248	1.228	33580
149	9248	1.228	36500
149	9249	1.228	35040
149	9249	1.228	37960
149	9250	1.228	36500
149	9250	1.228	39420
149	9251	1.228	37960
149	9251	1.228	40880
149	9252	1.228	39420
149	9252	1.228	42340
149	9253	1.228	40880
149	9253	1.228	43800
149	9254	1.228	42340
149	9254	1.228	45260
149	9255	1.228	43800
149	9255	1.228	46720
149	10645	1.253	45260
149	10645	1.253	48180
149	10646	1.253	46720
149	10646	1.253	49640
149	10723	1.256	48180
149	10723	1.256	51100
149	10724	1.256	49640
149	10724	1.256	52560
149	10909	1.257	51100
149	10909	1.257	54020
149	10910	1.257	52560
149	10910	1.257	55480
149	11087	1.262	54020
149	11087	1.262	56940
149	11088	1.262	55480
149	11088	1.262	58400
149	11089	1.262	56940
149	11089	1.262	59860
149	11090	1.262	58400
149	11090	1.262	61320
149	11091	1.262	59860
149	11091	1.262	62780
149	11092	1.262	61320
149	11092	1.262	64240
149	11093	1.262	62780
149	11093	1.262	65700
149	11094	1.262	64240
149	11094	1.262	67160
149	11095	1.262	65700
149	11095	1.262	68620
149	11096	1.262	67160
149	11096	1.262	70080
149	11097	1.262	68620
149	11097	1.262	71540
149	11098	1.262	70080
149	11098	1.262	73000
149	11099	1.262	71540
149	11099	1.262	74460
149	11100	1.262	73000
149	11100	1.262	75920
149	11101	1.262	74460
149	11101	1.262	77380
149	11480	1.267	75920
149	11480	1.267	78840
149	11481	1.267	77380
149	11481	1.267	80300
149	11582	1.268	78840
149	11582	1.268	81760
149	11583	1.268	80300
149	11583	1.268	83220
149	11584	1.268	81760
149	11584	1.268	82922
149	11585	1.268	81462
149	11586	1.268	80002
149	11587	1.268	78542
149	11588	1.268	77082
149	11589	1.268	75622
149	11920	1.273	74162
149	13442	1.291	72702
149	13443	1.291	71242
149	13463	1.292	69782
149	13464	1.292	68322
149	13732	1.293	66862
149	13733	1.293	65402
149	13734	1.293	63942
149	13735	1.293	62482
149	13736	1.293	61022
149	13737	1.293	59562
149	13738	1.293	58102
149	13739	1.293	56642
149	13740	1.293	55182
149	13741	1.293	53722
149	13900	1.298	52262
149	13901	1.298	50802
149	13902	1.298	49342
149	13903	1.298	47882
149	13904	1.298	46422
149	13905	1.298	44962
149	13906	1.298	43502
149	13907	1.298	42042
149	13908	1.298	40582
149	13909	1.298	39122
149	13910	1.298	37662
149	13911	1.298	36202
149	13912	1.298	34742
149	13913	1.298	33282
149	13914	1.298	31822
149	13915	1.298	30362
149	13916	1.298	28902
149	13917	1.298	27442
149	13918	1.298	25982
149	13919	1.298	24522
149	13920	1.298	23062
149	13921	1.298	21602
149	13922	1.298	20142
149	13923	1.298	18682
149	14059	1.303	17222
149	14060	1.303	15762
149	14138	1.304	14302
149	14139	1.304	12842
149	14140	1.304	11382
149	14141	1.304	9922
149	14142	1.304	8462
149	14143	1.304	7002
149	14144	1.304	5542
149	14207	1.309	4082
149	14208	1.309	2622
149	14209	1.309	1162
149	14210	1.309	0
149	14215	1.309	1
149	14495	1.337	0
150	5851	1.047	0
150	6216	1.081	0
150	6585	1.115	0
150	6586	1.115	0
150	7080	1.149	0
150	7081	1.149	0
150	7166	1.154	0
150	7167	1.154	0
150	7769	1.183	0
150	7770	1.183	0
150	7896	1.188	0
150	7897	1.188	0
150	7962	1.189	0
150	7963	1.189	0
150	8068	1.194	0
150	8069	1.194	0
150	8849	1.217	0
150	8850	1.217	0
150	8978	1.222	0
150	8979	1.222	0
150	9114	1.223	0
150	9115	1.223	0
150	9246	1.228	0
150	9247	1.228	0
150	9248	1.228	0
150	9249	1.228	0
150	9250	1.228	0
150	9251	1.228	0
150	9252	1.228	0
150	9253	1.228	0
150	9254	1.228	0
150	9255	1.228	0
150	10645	1.253	0
150	10646	1.253	0
150	10723	1.256	0
150	10724	1.256	0
150	10909	1.257	0
150	10910	1.257	0
150	11087	1.262	0
150	11088	1.262	0
150	11089	1.262	0
150	11090	1.262	0
150	11091	1.262	0
150	11092	1.262	0
150	11093	1.262	0
150	11094	1.262	0
150	11095	1.262	0
150	11096	1.262	0
150	11097	1.262	0
150	11098	1.262	0
150	11099	1.262	0
150	11100	1.262	0
150	11101	1.262	0
150	11480	1.267	0
150	11481	1.267	0
150	11582	1.268	0
150	11583	1.268	0
150	11584	1.268	0
150	11585	1.268	0
150	11586	1.268	0
150	11587	1.268	0
150	11588	1.268	0
150	11589	1.268	0
150	11920	1.273	0
150	13442	1.291	0
150	13443	1.291	0
150	13463	1.292	0
150	13464	1.292	0
150	13732	1.293	0
150	13733	1.293	0
150	13734	1.293	0
150	13735	1.293	0
150	13736	1.293	0
150	13737	1.293	0
150	13738	1.293	0
150	13739	1.293	0
150	13740	1.293	0
150	13741	1.293	0
150	13900	1.298	0
150	13901	1.298	0
150	13902	1.298	0
150	13903	1.298	0
150	13904	1.298	0
150	13905	1.298	0
150	13906	1.298	0
150	13907	1.298	0
150	13908	1.298	0
150	13909	1.298	0
150	13910	1.298	0
150	13911	1.298	0
150	13912	1.298	0
150	13913	1.298	0
150	13914	1.298	0
150	13915	1.298	0
150	13916	1.298	0
150	13917	1.298	0
150	13918	1.298	0
150	13919	1.298	0
150	13920	1.298	0
150	13921	1.298	0
150	13922	1.298	0
150	13923	1.298	0
150	14059	1.303	0
150	14060	1.303	0
150	14138	1.304	0
150	14139	1.304	0
150	14140	1.304	0
150	14141	1.304	0
150	14142	1.304	0
150	14143	1.304	0
150	14144	1.304	0
150	14207	1.309	0
150	14208	1.309	0
150	14209	1.309	0
150	14210	1.309	0
150	14211	1.309	0
150	14495	1.337	0
157	5481	1.013	0
157	5851	1.047	0
157	5851	1.047	0
157	5854	1.047	0
157	6216	1.081	0
157	6216	1.081	0
157	6585	1.115	0
157	6585	1.115	0
157	6586	1.115	0
157	6586	1.115	0
157	7080	1.149	0
157	7080	1.149	0
157	7081	1.149	0
157	7081	1.149	0
157	7166	1.154	0
157	7166	1.154	0
157	7167	1.154	0
157	7167	1.154	0
157	7769	1.183	0
157	7769	1.183	0
157	7770	1.183	0
157	7770	1.183	0
157	7896	1.188	0
157	7896	1.188	0
157	7897	1.188	0
157	7897	1.188	0
157	7962	1.189	0
157	7962	1.189	0
157	7963	1.189	0
157	7963	1.189	0
157	8068	1.194	0
157	8068	1.194	0
157	8069	1.194	0
157	8069	1.194	0
157	8849	1.217	0
157	8849	1.217	0
157	8850	1.217	0
157	8850	1.217	0
157	8978	1.222	0
157	8978	1.222	0
157	8979	1.222	0
157	8979	1.222	0
157	9114	1.223	0
157	9114	1.223	0
157	9115	1.223	0
157	9115	1.223	0
157	9246	1.228	0
157	9246	1.228	0
157	9247	1.228	0
157	9247	1.228	0
157	9248	1.228	0
157	9248	1.228	0
157	9249	1.228	0
157	9249	1.228	0
157	9250	1.228	0
157	9250	1.228	0
157	9251	1.228	0
157	9251	1.228	0
157	9252	1.228	0
157	9252	1.228	0
157	9253	1.228	0
157	9253	1.228	0
157	9254	1.228	0
157	9254	1.228	0
157	9255	1.228	0
157	9255	1.228	0
157	10645	1.253	0
157	10645	1.253	0
157	10646	1.253	0
157	10646	1.253	0
157	10723	1.256	0
157	10723	1.256	0
157	10724	1.256	0
157	10724	1.256	0
157	10909	1.257	0
157	10909	1.257	0
157	10910	1.257	0
157	10910	1.257	0
157	11087	1.262	0
157	11087	1.262	0
157	11088	1.262	0
157	11088	1.262	0
157	11089	1.262	0
157	11089	1.262	0
157	11090	1.262	0
157	11090	1.262	0
157	11091	1.262	0
157	11091	1.262	0
157	11092	1.262	0
157	11092	1.262	0
157	11093	1.262	0
157	11093	1.262	0
157	11094	1.262	0
157	11094	1.262	0
157	11095	1.262	0
157	11095	1.262	0
157	11096	1.262	0
157	11096	1.262	0
157	11097	1.262	0
157	11097	1.262	0
157	11098	1.262	0
157	11098	1.262	0
157	11099	1.262	0
157	11099	1.262	0
157	11100	1.262	0
157	11100	1.262	0
157	11101	1.262	0
157	11101	1.262	0
157	11480	1.267	0
157	11480	1.267	0
157	11481	1.267	0
157	11481	1.267	0
157	11582	1.268	0
157	11582	1.268	0
157	11583	1.268	0
157	11583	1.268	0
157	11584	1.268	0
157	14211	1.309	0
157	14215	1.309	0
vector 229  SingleCell_D2D.ueD2DTx[0].tcp  tcpRcvQueueBytes  ETV
vector 216  SingleCell_D2D.ueD2DTx[0].tcp  "advertised window"  ETV
vector 215  SingleCell_D2D.ueD2DTx[0].tcp  "receive window"  ETV
vector 218  SingleCell_D2D.ueD2DTx[0].tcp  "sent ack"  ETV
vector 195  SingleCell_D2D.ueD2DRx[0].tcp  "rcvd seq"  ETV
vector 196  SingleCell_D2D.ueD2DRx[0].tcp  "rcvd ack"  ETV
vector 192  SingleCell_D2D.ueD2DRx[0].tcp  "advertised window"  ETV
vector 190  SingleCell_D2D.ueD2DRx[0].tcp  "send window"  ETV
vector 205  SingleCell_D2D.ueD2DRx[0].tcp  tcpRcvQueueBytes  ETV
vector 191  SingleCell_D2D.ueD2DRx[0].tcp  "receive window"  ETV
vector 194  SingleCell_D2D.ueD2DRx[0].tcp  "sent ack"  ETV
vector 219  SingleCell_D2D.ueD2DTx[0].tcp  "rcvd seq"  ETV
vector 220  SingleCell_D2D.ueD2DTx[0].tcp  "rcvd ack"  ETV
vector 214  SingleCell_D2D.ueD2DTx[0].tcp  "send window"  ETV
vector 217  SingleCell_D2D.ueD2DTx[0].tcp  "sent seq"  ETV
vector 221  SingleCell_D2D.ueD2DTx[0].tcp  "unacked bytes"  ETV
vector 197  SingleCell_D2D.ueD2DRx[0].tcp  "unacked bytes"  ETV
vector 198  SingleCell_D2D.ueD2DRx[0].tcp  "rcvd dupAcks"  ETV
vector 193  SingleCell_D2D.ueD2DRx[0].tcp  "sent seq"  ETV
vector 233  SingleCell_D2D.ueD2DTx[0].tcp  "measured RTT"  ETV
vector 234  SingleCell_D2D.ueD2DTx[0].tcp  "smoothed RTT"  ETV
vector 235  SingleCell_D2D.ueD2DTx[0].tcp  RTTVAR  ETV
vector 236  SingleCell_D2D.ueD2DTx[0].tcp  RTO  ETV
vector 231  SingleCell_D2D.ueD2DTx[0].tcp  cwnd  ETV
vector 222  SingleCell_D2D.ueD2DTx[0].tcp  "rcvd dupAcks"  ETV
vector 209  SingleCell_D2D.ueD2DRx[0].tcp  "measured RTT"  ETV
vector 210  SingleCell_D2D.ueD2DRx[0].tcp  "smoothed RTT"  ETV
vector 211  SingleCell_D2D.ueD2DRx[0].tcp  RTTVAR  ETV
vector 212  SingleCell_D2D.ueD2DRx[0].tcp  RTO  ETV
vector 207  SingleCell_D2D.ueD2DRx[0].tcp  cwnd  ETV
207	19284	2.154	2920
207	19655	2.188	4380
207	19656	2.188	5840
207	20146	2.222	7300
207	20147	2.222	8760
207	20236	2.227	10220
207	20237	2.227	11680
207	20837	2.256	13140
207	20838	2.256	14600
207	20964	2.261	16060
207	20965	2.261	17520
207	21030	2.262	18980
207	21031	2.262	20440
207	21136	2.267	21900
207	21137	2.267	23360
207	21849	2.29	24820
207	21850	2.29	26280
207	21941	2.295	27740
207	21942	2.295	29200
207	22041	2.296	30660
207	22042	2.296	32120
207	22117	2.301	33580
207	22118	2.301	35040
207	22119	2.301	36500
207	22120	2.301	37960
207	22121	2.301	39420
207	22122	2.301	40880
207	22123	2.301	42340
207	22124	2.301	43800
207	22409	2.329	45260
209	19284	2.154	0.034
209	19655	2.188	0.034
209	20146	2.222	0.034
209	20837	2.256	0.034
209	21849	2.29	0.034
210	19284	2.154	0.00425
210	19655	2.188	0.00796875
210	20146	2.222	0.01122265625
210	20837	2.256	0.014069824219
210	21849	2.29	0.016561096192
211	19284	2.154	0.6605
211	19655	2.188	0.58165625
211	20146	2.222	0.512203125
211	20837	2.256	0.451024902344
211	21849	2.29	0.397138061524
212	19284	2.154	2.64625
212	19655	2.188	2.33459375
212	20146	2.222	2.06003515625
212	20837	2.256	1.818169433595
212	21849	2.29	1.605113342288
190	18551	2.086	65535
190	18849	2.114	1460000
190	19284	2.154	1460000
190	19655	2.188	1460000
190	19656	2.188	1460000
190	20146	2.222	1460000
190	20147	2.222	1460000
190	20236	2.227	1460000
190	20237	2.227	1460000
190	20837	2.256	1460000
190	20838	2.256	1460000
190	20964	2.261	1460000
190	20965	2.261	1460000
190	21030	2.262	1460000
190	21031	2.262	1460000
190	21136	2.267	1460000
190	21137	2.267	1460000
190	21849	2.29	1460000
190	21850	2.29	1460000
190	21941	2.295	1460000
190	21942	2.295	1460000
190	22041	2.296	1460000
190	22042	2.296	1460000
190	22117	2.301	1460000
190	22118	2.301	1460000
190	22119	2.301	1460000
190	22120	2.301	1460000
190	22121	2.301	1460000
190	22122	2.301	1460000
190	22123	2.301	1460000
190	22124	2.301	1460000
190	22409	2.329	1460000
191	18551	2.086	65535
191	18917	2.12	1460000
191	18920	2.12	1460000
191	19284	2.154	1460000
191	19284	2.154	1460000
191	19655	2.188	1460000
191	19655	2.188	1460000
191	19656	2.188	1460000
191	19656	2.188	1460000
191	20146	2.222	1460000
191	20146	2.222	1460000
191	20147	2.222	1460000
191	20147	2.222	1460000
191	20236	2.227	1460000
191	20236	2.227	1460000
191	20237	2.227	1460000
191	20237	2.227	1460000
191	20837	2.256	1460000
191	20837	2.256	1460000
191	20838	2.256	1460000
191	20838	2.256	1460000
191	20964	2.261	1460000
191	20964	2.261	1460000
191	20965	2.261	1460000
191	20965	2.261	1460000
191	21030	2.262	1460000
191	21030	2.262	1460000
191	21031	2.262	1460000
191	21031	2.262	1460000
191	21136	2.267	1460000
191	21136	2.267	1460000
191	22125	2.301	1460000
191	22129	2.301	1460000
192	18551	2.086	583626
192	18551	2.086	583626
192	18917	2.12	1978841
192	18920	2.12	1978841
192	19284	2.154	1978841
192	19284	2.154	1978841
192	19655	2.188	1978841
192	19655	2.188	1978841
192	19656	2.188	1978841
192	19656	2.188	1978841
192	20146	2.222	1978841
192	20146	2.222	1978841
192	20147	2.222	1978841
192	20147	2.222	1978841
192	20236	2.227	1978841
192	20236	2.227	1978841
192	20237	2.227	1978841
192	20237	2.227	1978841
192	20837	2.256	1978841
192	20837	2.256	1978841
192	20838	2.256	1978841
192	20838	2.256	1978841
192	20964	2.261	1978841
192	20964	2.261	1978841
192	20965	2.261	1978841
192	20965	2.261	1978841
192	21030	2.262	1978841
192	21030	2.262	1978841
192	21031	2.262	1978841
192	21031	2.262	1978841
192	21136	2.267	1978841
192	21136	2.267	1978841
192	22125	2.301	1978842
192	22129	2.301	1978842
193	18920	2.12	521500
193	19284	2.154	522960
193	19284	2.154	524420
193	19655	2.188	525880
193	19655	2.188	527340
193	19656	2.188	528800
193	19656	2.188	530260
193	20146	2.222	531720
193	20146	2.222	533180
193	20147	2.222	534640
193	20147	2.222	536100
193	20236	2.227	537560
193	20236	2.227	539020
193	20237	2.227	540480
193	20237	2.227	541940
193	20837	2.256	543400
193	20837	2.256	544860
193	20838	2.256	546320
193	20838	2.256	547780
193	20964	2.261	549240
193	20964	2.261	550700
193	20965	2.261	552160
193	20965	2.261	553620
193	21030	2.262	555080
193	21030	2.262	556540
193	21031	2.262	558000
193	21031	2.262	559460
193	21136	2.267	560920
193	21136	2.267	562380
194	18551	2.086	518091
194	18917	2.12	518841
194	18920	2.12	518841
194	19284	2.154	518841
194	19284	2.154	518841
194	19655	2.188	518841
194	19655	2.188	518841
194	19656	2.188	518841
194	19656	2.188	518841
194	20146	2.222	518841
194	20146	2.222	518841
194	20147	2.222	518841
194	20147	2.222	518841
194	20236	2.227	518841
194	20236	2.227	518841
194	20237	2.227	518841
194	20237	2.227	518841
194	20837	2.256	518841
194	20837	2.256	518841
194	20838	2.256	518841
194	20838	2.256	518841
194	20964	2.261	518841
194	20964	2.261	518841
194	20965	2.261	518841
194	20965	2.261	518841
194	21030	2.262	518841
194	21030	2.262	518841
194	21031	2.262	518841
194	21031	2.262	518841
194	21136	2.267	518841
194	21136	2.267	518841
194	22125	2.301	518842
194	22129	2.301	518842
195	18551	2.086	518090
195	18849	2.114	518091
195	18917	2.12	518091
195	19284	2.154	518841
195	19655	2.188	518841
195	19656	2.188	518841
195	20146	2.222	518841
195	20147	2.222	518841
195	20236	2.227	518841
195	20237	2.227	518841
195	20837	2.256	518841
195	20838	2.256	518841
195	20964	2.261	518841
195	20965	2.261	518841
195	21030	2.262	518841
195	21031	2.262	518841
195	21136	2.267	518841
195	21137	2.267	518841
195	21849	2.29	518841
195	21850	2.29	518841
195	21941	2.295	518841
195	21942	2.295	518841
195	22041	2.296	518841
195	22042	2.296	518841
195	22117	2.301	518841
195	22118	2.301	518841
195	22119	2.301	518841
195	22120	2.301	518841
195	22121	2.301	518841
195	22122	2.301	518841
195	22123	2.301	518841
195	22124	2.301	518841
195	22125	2.301	518841
195	22409	2.329	518842
196	18551	2.086	0
196	18849	2.114	521500
196	18917	2.12	521500
196	19284	2.154	522960
196	19655	2.188	524420
196	19656	2.188	525880
196	20146	2.222	527340
196	20147	2.222	528800
196	20236	2.227	530260
196	20237	2.227	531720
196	20837	2.256	533180
196	20838	2.256	534640
196	20964	2.261	536100
196	20965	2.261	537560
196	21030	2.262	539020
196	21031	2.262	540480
196	21136	2.267	541940
196	21137	2.267	543400
196	21849	2.29	544860
196	21850	2.29	546320
196	21941	2.295	547780
196	21942	2.295	549240
196	22041	2.296	550700
196	22042	2.296	552160
196	22117	2.301	553620
196	22118	2.301	555080
196	22119	2.301	556540
196	22120	2.301	558000
196	22121	2.301	559460
196	22122	2.301	560920
196	22123	2.301	562380
196	22124	2.301	563735
196	22125	2.301	563735
196	22409	2.329	563736
197	18849	2.114	0
197	18920	2.12	1460
197	19284	2.154	0
197	19284	2.154	2920
197	19655	2.188	1460
197	19655	2.188	4380
197	19656	2.188	2920
197	19656	2.188	5840
197	20146	2.222	4380
197	20146	2.222	7300
197	20147	2.222	5840
197	20147	2.222	8760
197	20236	2.227	7300
197	20236	2.227	10220
197	20237	2.227	8760
197	20237	2.227	11680
197	20837	2.256	10220
197	20837	2.256	13140
197	20838	2.256	11680
197	20838	2.256	14600
197	20964	2.261	13140
197	20964	2.261	16060
197	20965	2.261	14600
197	20965	2.261	17520
197	21030	2.262	16060
197	21030	2.262	18980
197	21031	2.262	17520
197	21031	2.262	20440
197	21136	2.267	18980
197	21136	2.267	21795
197	21137	2.267	20335
197	21849	2.29	18875
197	21850	2.29	17415
197	21941	2.295	15955
197	21942	2.295	14495
197	22041	2.296	13035
197	22042	2.296	11575
197	22117	2.301	10115
197	22118	2.301	8655
197	22119	2.301	7195
197	22120	2.301	5735
197	22121	2.301	4275
197	22122	2.301	2815
197	22123	2.301	1355
197	22124	2.301	0
197	22129	2.301	1
197	22409	2.329	0
198	18917	2.12	0
198	19284	2.154	0
198	19655	2.188	0
198	19656	2.188	0
198	20146	2.222	0
198	20147	2.222	0
198	20236	2.227	0
198	20237	2.227	0
198	20837	2.256	0
198	20838	2.256	0
198	20964	2.261	0
198	20965	2.261	0
198	21030	2.262	0
198	21031	2.262	0
198	21136	2.267	0
198	21137	2.267	0
198	21849	2.29	0
198	21850	2.29	0
198	21941	2.295	0
198	21942	2.295	0
198	22041	2.296	0
198	22042	2.296	0
198	22117	2.301	0
198	22118	2.301	0
198	22119	2.301	0
198	22120	2.301	0
198	22121	2.301	0
198	22122	2.301	0
198	22123	2.301	0
198	22124	2.301	0
198	22125	2.301	0
198	22409	2.329	0
205	18551	2.086	0
205	18917	2.12	0
205	18917	2.12	0
205	18920	2.12	0
205	19284	2.154	0
205	19284	2.154	0
205	19655	2.188	0
205	19655	2.188	0
205	19656	2.188	0
205	19656	2.188	0
205	20146	2.222	0
205	20146	2.222	0
205	20147	2.222	0
205	20147	2.222	0
205	20236	2.227	0
205	20236	2.227	0
205	20237	2.227	0
205	20237	2.227	0
205	20837	2.256	0
205	20837	2.256	0
205	20838	2.256	0
205	20838	2.256	0
205	20964	2.261	0
205	20964	2.261	0
205	20965	2.261	0
205	20965	2.261	0
205	21030	2.262	0
205	21030	2.262	0
205	21031	2.262	0
205	21031	2.262	0
205	21136	2.267	0
205	21136	2.267	0
205	22125	2.301	0
205	22129	2.301	0
vector 277  SingleCell_D2D.ueD2DTx[0].tcp  tcpRcvQueueBytes  ETV
vector 264  SingleCell_D2D.ueD2DTx[0].tcp  "advertised window"  ETV
vector 263  SingleCell_D2D.ueD2DTx[0].tcp  "receive window"  ETV
vector 266  SingleCell_D2D.ueD2DTx[0].tcp  "sent ack"  ETV
vector 243  SingleCell_D2D.ueD2DRx[0].tcp  "rcvd seq"  ETV
vector 244  SingleCell_D2D.ueD2DRx[0].tcp  "rcvd ack"  ETV
vector 240  SingleCell_D2D.ueD2DRx[0].tcp  "advertised window"  ETV
vector 238  SingleCell_D2D.ueD2DRx[0].tcp  "send window"  ETV
vector 253  SingleCell_D2D.ueD2DRx[0].tcp  tcpRcvQueueBytes  ETV
vector 239  SingleCell_D2D.ueD2DRx[0].tcp  "receive window"  ETV
vector 242  SingleCell_D2D.ueD2DRx[0].tcp  "sent ack"  ETV
vector 267  SingleCell_D2D.ueD2DTx[0].tcp  "rcvd seq"  ETV
vector 268  SingleCell_D2D.ueD2DTx[0].tcp  "rcvd ack"  ETV
vector 262  SingleCell_D2D.ueD2DTx[0].tcp  "send window"  ETV
vector 265  SingleCell_D2D.ueD2DTx[0].tcp  "sent seq"  ETV
vector 269  SingleCell_D2D.ueD2DTx[0].tcp  "unacked bytes"  ETV
vector 245  SingleCell_D2D.ueD2DRx[0].tcp  "unacked bytes"  ETV
vector 246  SingleCell_D2D.ueD2DRx[0].tcp  "rcvd dupAcks"  ETV
vector 241  SingleCell_D2D.ueD2DRx[0].tcp  "sent seq"  ETV
vector 281  SingleCell_D2D.ueD2DTx[0].tcp  "measured RTT"  ETV
vector 282  SingleCell_D2D.ueD2DTx[0].tcp  "smoothed RTT"  ETV
vector 283  SingleCell_D2D.ueD2DTx[0].tcp  RTTVAR  ETV
vector 284  SingleCell_D2D.ueD2DTx[0].tcp  RTO  ETV
vector 279  SingleCell_D2D.ueD2DTx[0].tcp  cwnd  ETV
vector 270  SingleCell_D2D.ueD2DTx[0].tcp  "rcvd dupAcks"  ETV
vector 257  SingleCell_D2D.ueD2DRx[0].tcp  "measured RTT"  ETV
vector 258  SingleCell_D2D.ueD2DRx[0].tcp  "smoothed RTT"  ETV
vector 259  SingleCell_D2D.ueD2DRx[0].tcp  RTTVAR  ETV
vector 260  SingleCell_D2D.ueD2DRx[0].tcp  RTO  ETV
vector 255  SingleCell_D2D.ueD2DRx[0].tcp  cwnd  ETV
255	23730	2.496	2920
255	24101	2.53	4380
255	24102	2.53	5840
255	24592	2.564	7300
255	24593	2.564	8760
255	24682	2.569	10220
255	24683	2.569	11680
255	25283	2.598	13140
255	25284	2.598	14600
255	25410	2.603	16060
255	25411	2.603	17520
255	25476	2.604	18980
255	25477	2.604	20440
255	25582	2.609	21900
255	25583	2.609	23360
255	26365	2.632	24820
255	26366	2.632	26280
255	26494	2.637	27740
255	26495	2.637	29200
255	26630	2.638	30660
255	26631	2.638	32120
255	26762	2.643	33580
255	26763	2.643	35040
255	26764	2.643	36500
255	26765	2.643	37960
255	26766	2.643	39420
255	26767	2.643	40880
255	26768	2.643	42340
255	26769	2.643	43800
255	26770	2.643	45260
255	26771	2.643	46720
255	28161	2.668	48180
255	28162	2.668	49640
255	28239	2.671	51100
255	28240	2.671	52560
255	28421	2.672	54020
255	28422	2.672	55480
255	28603	2.677	56940
255	28604	2.677	58400
255	28605	2.677	59860
255	28606	2.677	61320
255	28607	2.677	62780
255	28608	2.677	64240
255	28609	2.677	65700
255	28610	2.677	67160
255	28611	2.677	68620
255	28612	2.677	70080
255	28613	2.677	71540
255	28614	2.677	73000
255	28615	2.677	74460
255	28616	2.677	75920
255	28617	2.677	77380
255	28994	2.682	78840
255	28995	2.682	80300
255	29098	2.683	81760
255	29099	2.683	83220
255	29100	2.683	84680
255	29101	2.683	86140
255	29102	2.683	87600
255	29103	2.683	89060
255	29104	2.683	90520
255	29105	2.683	91980
255	29500	2.688	93440
255	31144	2.707	94900
255	31145	2.707	96360
255	31146	2.707	97820
255	31147	2.707	99280
255	31464	2.708	100740
255	31465	2.708	102200
255	31466	2.708	103660
255	31467	2.708	105120
255	31468	2.708	106580
255	31469	2.708	108040
255	31470	2.708	109500
255	31471	2.708	110960
255	31472	2.708	112420
255	31473	2.708	113880
255	31840	2.713	115340
255	31841	2.713	116800
255	31842	2.713	118260
255	31843	2.713	119720
255	31844	2.713	121180
255	31845	2.713	122640
255	31846	2.713	124100
255	31847	2.713	125560
255	31848	2.713	127020
255	31849	2.713	128480
255	31850	2.713	129940
255	31851	2.713	131400
255	31852	2.713	132860
255	31853	2.713	134320
255	31854	2.713	135780
255	31855	2.713	137240
255	31856	2.713	138700
255	31857	2.713	140160
255	31858	2.713	141620
255	31859	2.713	143080
255	31860	2.713	144540
255	31861	2.713	146000
255	31862	2.713	147460
255	31863	2.713	148920
255	32420	2.719	150380
255	32421	2.719	151840
255	32422	2.719	153300
255	32423	2.719	154760
255	32424	2.719	156220
255	32425	2.719	157680
255	32426	2.719	159140
255	32427	2.719	160600
255	32428	2.719	162060
255	32854	2.724	163520
255	32855	2.724	164980
255	32856	2.724	166440
255	32857	2.724	167900
255	32858	2.724	169360
255	32859	2.724	170820
255	32860	2.724	172280
255	33367	2.73	173740
255	33368	2.73	175200
255	33835	2.737	176660
255	33836	2.737	178120
255	33895	2.738	179580
255	33896	2.738	181040
255	33897	2.738	182500
255	33898	2.738	183960
255	33899	2.738	185420
255	33900	2.738	186880
255	33901	2.738	188340
255	33902	2.738	189800
255	34114	2.743	191260
255	34115	2.743	192720
255	34334	2.744	194180
255	34335	2.744	195640
255	34336	2.744	197100
255	34337	2.744	198560
255	34338	2.744	200020
255	34339	2.744	201480
255	34340	2.744	202940
255	34341	2.744	204400
255	34342	2.744	205860
255	34343	2.744	207320
255	34344	2.744	208780
255	34345	2.744	210240
255	34346	2.744	211700
255	34347	2.744	213160
255	34348	2.744	214620
255	34450	2.749	216080
255	34451	2.749	217540
255	34452	2.749	219000
255	34453	2.749	220460
255	34454	2.749	221920
255	34455	2.749	223380
255	34456	2.749	224840
255	34457	2.749	226300
255	34458	2.749	227760
255	34459	2.749	229220
255	34460	2.749	230680
255	34461	2.749	232140
255	34462	2.749	233600
255	34463	2.749	235060
255	34464	2.749	236520
255	34465	2.749	237980
255	34466	2.749	239440
255	34751	2.777	240900
257	23730	2.496	0.034
257	24101	2.53	0.034
257	24592	2.564	0.034
257	25283	2.598	0.034
257	26365	2.632	0.034
257	28161	2.668	0.036
257	31144	2.707	0.039
257	33901	2.738	0.031
258	23730	2.496	0.00425
258	24101	2.53	0.00796875
258	24592	2.564	0.01122265625
258	25283	2.598	0.014069824219
258	26365	2.632	0.016561096192
258	28161	2.668	0.018990959168
258	31144	2.707	0.021492089272
258	33901	2.738	0.022680578113
259	23730	2.496	0.6605
259	24101	2.53	0.58165625
259	24592	2.564	0.512203125
259	25283	2.598	0.451024902344
259	26365	2.632	0.397138061524
259	28161	2.668	0.34992566681
259	31144	2.707	0.308686088563
259	33901	2.738	0.271288816334
260	23730	2.496	2.64625
260	24101	2.53	2.33459375
260	24592	2.564	2.06003515625
260	25283	2.598	1.818169433595
260	26365	2.632	1.605113342288
260	28161	2.668	1.418693626408
260	31144	2.707	1.256236443524
260	33901	2.738	1.107835843449
238	22997	2.428	65535
238	23295	2.456	1460000
238	23730	2.496	1460000
238	24101	2.53	1460000
238	24102	2.53	1460000
238	24592	2.564	1460000
238	24593	2.564	1460000
238	24682	2.569	1460000
238	24683	2.569	1460000
238	25283	2.598	1460000
238	25284	2.598	1460000
238	25410	2.603	1460000
238	25411	2.603	1460000
238	25476	2.604	1460000
238	25477	2.604	1460000
238	25582	2.609	1460000
238	25583	2.609	1460000
238	26365	2.632	1460000
238	26366	2.632	1460000
238	26494	2.637	1460000
238	26495	2.637	1460000
238	26630	2.638	1460000
238	26631	2.638	1460000
238	26762	2.643	1460000
238	26763	2.643	1460000
238	26764	2.643	1460000
238	26765	2.643	1460000
238	26766	2.643	1460000
238	26767	2.643	1460000
238	26768	2.643	1460000
238	26769	2.643	1460000
238	26770	2.643	1460000
238	26771	2.643	1460000
238	28161	2.668	1460000
238	28162	2.668	1460000
238	28239	2.671	1460000
238	28240	2.671	1460000
238	28421	2.672	1460000
238	28422	2.672	1460000
238	28603	2.677	1460000
238	28604	2.677	1460000
238	28605	2.677	1460000
238	28606	2.677	1460000
238	28607	2.677	1460000
238	28608	2.677	1460000
238	28609	2.677	1460000
238	28610	2.677	1460000
238	28611	2.677	1460000
238	28612	2.677	1460000
238	28613	2.677	1460000
238	28614	2.677	1460000
238	28615	2.677	1460000
238	28616	2.677	1460000
238	28617	2.677	1460000
238	28994	2.682	1460000
238	28995	2.682	1460000
238	29098	2.683	1460000
238	29099	2.683	1460000
238	29100	2.683	1460000
238	29101	2.683	1460000
238	29102	2.683	1460000
238	29103	2.683	1460000
238	29104	2.683	1460000
238	29105	2.683	1460000
238	29500	2.688	1460000
238	31144	2.707	1460000
238	31145	2.707	1460000
238	31146	2.707	1460000
238	31147	2.707	1460000
238	31464	2.708	1460000
238	31465	2.708	1460000
238	31466	2.708	1460000
238	31467	2.708	1460000
238	31468	2.708	1460000
238	31469	2.708	1460000
238	31470	2.708	1460000
238	31471	2.708	1460000
238	31472	2.708	1460000
238	31473	2.708	1460000
238	31840	2.713	1460000
238	31841	2.713	1460000
238	31842	2.713	1460000
238	31843	2.713	1460000
238	31844	2.713	1460000
238	31845	2.713	1460000
238	31846	2.713	1460000
238	31847	2.713	1460000
238	31848	2.713	1460000
238	31849	2.713	1460000
238	31850	2.713	1460000
238	31851	2.713	1460000
238	31852	2.713	1460000
238	31853	2.713	1460000
238	31854	2.713	1460000
238	31855	2.713	1460000
238	31856	2.713	1460000
238	31857	2.713	1460000
238	31858	2.713	1460000
238	31859	2.713	1460000
238	31860	2.713	1460000
238	31861	2.713	1460000
238	31862	2.713	1460000
238	31863	2.713	1460000
238	32420	2.719	1460000
238	32421	2.719	1460000
238	32422	2.719	1460000
238	32423	2.719	1460000
238	32424	2.719	1460000
238	32425	2.719	1460000
238	32426	2.719	1460000
238	32427	2.719	1460000
238	32428	2.719	1460000
238	32854	2.724	1460000
238	32855	2.724	1460000
238	32856	2.724	1460000
238	32857	2.724	1460000
238	32858	2.724	1460000
238	32859	2.724	1460000
238	32860	2.724	1460000
238	33367	2.73	1460000
238	33368	2.73	1460000
238	33835	2.737	1460000
238	33836	2.737	1460000
238	33895	2.738	1460000
238	33896	2.738	1460000
238	33897	2.738	1460000
238	33898	2.738	1460000
238	33899	2.738	1460000
238	33900	2.738	1460000
238	33901	2.738	1460000
238	33902	2.738	1460000
238	34114	2.743	1460000
238	34115	2.743	1460000
238	34334	2.744	1460000
238	34335	2.744	1460000
238	34336	2.744	1460000
238	34337	2.744	1460000
238	34338	2.744	1460000
238	34339	2.744	1460000
238	34340	2.744	1460000
238	34341	2.744	1460000
238	34342	2.744	1460000
238	34343	2.744	1460000
238	34344	2.744	1460000
238	34345	2.744	1460000
238	34346	2.744	1460000
238	34347	2.744	1460000
238	34348	2.744	1460000
238	34450	2.749	1460000
238	34451	2.749	1460000
238	34452	2.749	1460000
238	34453	2.749	1460000
238	34454	2.749	1460000
238	34455	2.749	1460000
238	34456	2.749	1460000
238	34457	2.749	1460000
238	34458	2.749	1460000
238	34459	2.749	1460000
238	34460	2.749	1460000
238	34461	2.749	1460000
238	34462	2.749	1460000
238	34463	2.749	1460000
238	34464	2.749	1460000
238	34465	2.749	1460000
238	34466	2.749	1460000
238	34751	2.777	1460000
239	22997	2.428	65535
239	23363	2.462	1460000
239	23366	2.462	1460000
239	23730	2.496	1460000
239	23730	2.496	1460000
239	24101	2.53	1460000
239	24101	2.53	1460000
239	24102	2.53	1460000
239	24102	2.53	1460000
239	24592	2.564	1460000
239	24592	2.564	1460000
239	24593	2.564	1460000
239	24593	2.564	1460000
239	24682	2.569	1460000
239	24682	2.569	1460000
239	24683	2.569	1460000
239	24683	2.569	1460000
239	25283	2.598	1460000
239	25283	2.598	1460000
239	25284	2.598	1460000
239	25284	2.598	1460000
239	25410	2.603	1460000
239	25410	2.603	1460000
239	25411	2.603	1460000
239	25411	2.603	1460000
239	25476	2.604	1460000
239	25476	2.604	1460000
239	25477	2.604	1460000
239	25477	2.604	1460000
239	25582	2.609	1460000
239	25582	2.609	1460000
239	25583	2.609	1460000
239	25583	2.609	1460000
239	26365	2.632	1460000
239	26365	2.632	1460000
239	26366	2.632	1460000
239	26366	2.632	1460000
239	26494	2.637	1460000
239	26494	2.637	1460000
239	26495	2.637	1460000
239	26495	2.637	1460000
239	26630	2.638	1460000
239	26630	2.638	1460000
239	26631	2.638	1460000
239	26631	2.638	1460000
239	26762	2.643	1460000
239	26762	2.643	1460000
239	26763	2.643	1460000
239	26763	2.643	1460000
239	26764	2.643	1460000
239	26764	2.643	1460000
239	26765	2.643	1460000
239	26765	2.643	1460000
239	26766	2.643	1460000
239	26766	2.643	1460000
239	26767	2.643	1460000
239	26767	2.643	1460000
239	26768	2.643	1460000
239	26768	2.643	1460000
239	26769	2.643	1460000
239	26769	2.643	1460000
239	26770	2.643	1460000
239	26770	2.643	1460000
239	26771	2.643	1460000
239	26771	2.643	1460000
239	28161	2.668	1460000
239	28161	2.668	1460000
239	28162	2.668	1460000
239	28162	2.668	1460000
239	28239	2.671	1460000
239	28239	2.671	1460000
239	28240	2.671	1460000
239	28240	2.671	1460000
239	28421	2.672	1460000
239	28421	2.672	1460000
239	28422	2.672	1460000
239	28422	2.672	1460000
239	28603	2.677	1460000
239	28603	2.677	1460000
239	28604	2.677	1460000
239	28604	2.677	1460000
239	28605	2.677	1460000
239	28605	2.677	1460000
239	28606	2.677	1460000
239	28606	2.677	1460000
239	28607	2.677	1460000
239	28607	2.677	1460000
239	28608	2.677	1460000
239	28608	2.677	1460000
239	28609	2.677	1460000
239	28609	2.677	1460000
239	28610	2.677	1460000
239	28610	2.677	1460000
239	28611	2.677	1460000
239	28611	2.677	1460000
239	28612	2.677	1460000
239	28612	2.677	1460000
239	28613	2.677	1460000
239	28613	2.677	1460000
239	28614	2.677	1460000
239	28614	2.677	1460000
239	28615	2.677	1460000
239	28615	2.677	1460000
239	28616	2.677	1460000
239	28616	2.677	1460000
239	28617	2.677	1460000
239	28617	2.677	1460000
239	28994	2.682	1460000
239	28994	2.682	1460000
239	28995	2.682	1460000
239	28995	2.682	1460000
239	29098	2.683	1460000
239	29098	2.683	1460000
239	29099	2.683	1460000
239	29099	2.683	1460000
239	29100	2.683	1460000
239	29100	2.683	1460000
239	29101	2.683	1460000
239	29101	2.683	1460000
239	29102	2.683	1460000
239	29102	2.683	1460000
239	29103	2.683	1460000
239	29103	2.683	1460000
239	29104	2.683	1460000
239	29104	2.683	1460000
239	29105	2.683	1460000
239	29105	2.683	1460000
239	29500	2.688	1460000
239	29500	2.688	1460000
239	31144	2.707	1460000
239	31144	2.707	1460000
239	31145	2.707	1460000
239	31145	2.707	1460000
239	31146	2.707	1460000
239	31146	2.707	1460000
239	31147	2.707	1460000
239	31147	2.707	1460000
239	31464	2.708	1460000
239	31464	2.708	1460000
239	31465	2.708	1460000
239	31465	2.708	1460000
239	31466	2.708	1460000
239	31466	2.708	1460000
239	31467	2.708	1460000
239	31467	2.708	1460000
239	31468	2.708	1460000
239	31468	2.708	1460000
239	31469	2.708	1460000
239	31469	2.708	1460000
239	31470	2.708	1460000
239	31470	2.708	1460000
239	31471	2.708	1460000
239	31471	2.708	1460000
239	31472	2.708	1460000
239	31472	2.708	1460000
239	31473	2.708	1460000
239	31473	2.708	1460000
239	31840	2.713	1460000
239	31840	2.713	1460000
239	31841	2.713	1460000
239	31841	2.713	1460000
239	31842	2.713	1460000
239	31842	2.713	1460000
239	31843	2.713	1460000
239	31843	2.713	1460000
239	34467	2.749	1460000
239	34471	2.749	1460000
240	22997	2.428	669238
240	22997	2.428	669238
240	23363	2.462	2064453
240	23366	2.462	2064453
240	23730	2.496	2064453
240	23730	2.496	2064453
240	24101	2.53	2064453
240	24101	2.53	2064453
240	24102	2.53	2064453
240	24102	2.53	2064453
240	24592	2.564	2064453
240	24592	2.564	2064453
240	24593	2.564	2064453
240	24593	2.564	2064453
240	24682	2.569	2064453
240	24682	2.569	2064453
240	24683	2.569	2064453
240	24683	2.569	2064453
240	25283	2.598	2064453
240	25283	2.598	2064453
240	25284	2.598	2064453
240	25284	2.598	2064453
240	25410	2.603	2064453
240	25410	2.603	2064453
240	25411	2.603	2064453
240	25411	2.603	2064453
240	25476	2.604	2064453
240	25476	2.604	2064453
240	25477	2.604	2064453
240	25477	2.604	2064453
240	25582	2.609	2064453
240	25582	2.609	2064453
240	25583	2.609	2064453
240	25583	2.609	2064453
240	26365	2.632	2064453
240	26365	2.632	2064453
240	26366	2.632	2064453
240	26366	2.632	2064453
240	26494	2.637	2064453
240	26494	2.637	2064453
240	26495	2.637	2064453
240	26495	2.637	2064453
240	26630	2.638	2064453
240	26630	2.638	2064453
240	26631	2.638	2064453
240	26631	2.638	2064453
240	26762	2.643	2064453
240	26762	2.643	2064453
240	26763	2.643	2064453
240	26763	2.643	2064453
240	26764	2.643	2064453
240	26764	2.643	2064453
240	26765	2.643	2064453
240	26765	2.643	2064453
240	26766	2.643	2064453
240	26766	2.643	2064453
240	26767	2.643	2064453
240	26767	2.643	2064453
240	26768	2.643	2064453
240	26768	2.643	2064453
240	26769	2.643	2064453
240	26769	2.643	2064453
240	26770	2.643	2064453
240	26770	2.643	2064453
240	26771	2.643	2064453
240	26771	2.643	2064453
240	28161	2.668	2064453
240	28161	2.668	2064453
240	28162	2.668	2064453
240	28162	2.668	2064453
240	28239	2.671	2064453
240	28239	2.671	2064453
240	28240	2.671	2064453
240	28240	2.671	2064453
240	28421	2.672	2064453
240	28421	2.672	2064453
240	28422	2.672	2064453
240	28422	2.672	2064453
240	28603	2.677	2064453
240	28603	2.677	2064453
240	28604	2.677	2064453
240	28604	2.677	2064453
240	28605	2.677	2064453
240	28605	2.677	2064453
240	28606	2.677	2064453
240	28606	2.677	2064453
240	28607	2.677	2064453
240	28607	2.677	2064453
240	28608	2.677	2064453
240	28608	2.677	2064453
240	28609	2.677	2064453
240	28609	2.677	2064453
240	28610	2.677	2064453
240	28610	2.677	2064453
240	28611	2.677	2064453
240	28611	2.677	2064453
240	28612	2.677	2064453
240	28612	2.677	2064453
240	28613	2.677	2064453
240	28613	2.677	2064453
240	28614	2.677	2064453
240	28614	2.677	2064453
240	28615	2.677	2064453
240	28615	2.677	2064453
240	28616	2.677	2064453
240	28616	2.677	2064453
240	28617	2.677	2064453
240	28617	2.677	2064453
240	28994	2.682	2064453
240	28994	2.682	2064453
240	28995	2.682	2064453
240	28995	2.682	2064453
240	29098	2.683	2064453
240	29098	2.683	2064453
240	29099	2.683	2064453
240	29099	2.683	2064453
240	29100	2.683	2064453
240	29100	2.683	2064453
240	29101	2.683	2064453
240	29101	2.683	2064453
240	29102	2.683	2064453
240	29102	2.683	2064453
240	29103	2.683	2064453
240	29103	2.683	2064453
240	29104	2.683	2064453
240	29104	2.683	2064453
240	29105	2.683	2064453
240	29105	2.683	2064453
240	29500	2.688	2064453
240	29500	2.688	2064453
240	31144	2.707	2064453
240	31144	2.707	2064453
240	31145	2.707	2064453
240	31145	2.707	2064453
240	31146	2.707	2064453
240	31146	2.707	2064453
240	31147	2.707	2064453
240	31147	2.707	2064453
240	31464	2.708	2064453
240	31464	2.708	2064453
240	31465	2.708	2064453
240	31465	2.708	2064453
240	31466	2.708	2064453
240	31466	2.708	2064453
240	31467	2.708	2064453
240	31467	2.708	2064453
240	31468	2.708	2064453
240	31468	2.708	2064453
240	31469	2.708	2064453
240	31469	2.708	2064453
240	31470	2.708	2064453
240	31470	2.708	2064453
240	31471	2.708	2064453
240	31471	2.708	2064453
240	31472	2.708	2064453
240	31472	2.708	2064453
240	31473	2.708	2064453
240	31473	2.708	2064453
240	31840	2.713	2064453
240	31840	2.713	2064453
240	31841	2.713	2064453
240	31841	2.713	2064453
240	31842	2.713	2064453
240	31842	2.713	2064453
240	31843	2.713	2064453
240	31843	2.713	2064453
240	34467	2.749	2064454
240	34471	2.749	2064454
241	23366	2.462	607001
241	23730	2.496	608461
241	23730	2.496	609921
241	24101	2.53	611381
241	24101	2.53	612841
241	24102	2.53	614301
241	24102	2.53	615761
241	24592	2.564	617221
241	24592	2.564	618681
241	24593	2.564	620141
241	24593	2.564	621601
241	24682	2.569	623061
241	24682	2.569	624521
241	24683	2.569	625981
241	24683	2.569	627441
241	25283	2.598	628901
241	25283	2.598	630361
241	25284	2.598	631821
241	25284	2.598	633281
241	25410	2.603	634741
241	25410	2.603	636201
241	25411	2.603	637661
241	25411	2.603	639121
241	25476	2.604	640581
241	25476	2.604	642041
241	25477	2.604	643501
241	25477	2.604	644961
241	25582	2.609	646421
241	25582	2.609	647881
241	25583	2.609	649341
241	25583	2.609	650801
241	26365	2.632	652261
241	26365	2.632	653721
241	26366	2.632	655181
241	26366	2.632	656641
241	26494	2.637	658101
241	26494	2.637	659561
241	26495	2.637	661021
241	26495	2.637	662481
241	26630	2.638	663941
241	26630	2.638	665401
241	26631	2.638	666861
241	26631	2.638	668321
241	26762	2.643	669781
241	26762	2.643	671241
241	26763	2.643	672701
241	26763	2.643	674161
241	26764	2.643	675621
241	26764	2.643	677081
241	26765	2.643	678541
241	26765	2.643	680001
241	26766	2.643	681461
241	26766	2.643	682921
241	26767	2.643	684381
241	26767	2.643	685841
241	26768	2.643	687301
241	26768	2.643	688761
241	26769	2.643	690221
241	26769	2.643	691681
241	26770	2.643	693141
241	26770	2.643	694601
241	26771	2.643	696061
241	26771	2.643	697521
241	28161	2.668	698981
241	28161	2.668	700441
241	28162	2.668	701901
241	28162	2.668	703361
241	28239	2.671	704821
241	28239	2.671	706281
241	28240	2.671	707741
241	28240	2.671	709201
241	28421	2.672	710661
241	28421	2.672	712121
241	28422	2.672	713581
241	28422	2.672	715041
241	28603	2.677	716501
241	28603	2.677	717961
241	28604	2.677	719421
241	28604	2.677	720881
241	28605	2.677	722341
241	28605	2.677	723801
241	28606	2.677	725261
241	28606	2.677	726721
241	28607	2.677	728181
241	28607	2.677	729641
241	28608	2.677	731101
241	28608	2.677	732561
241	28609	2.677	734021
241	28609	2.677	735481
241	28610	2.677	736941
241	28610	2.677	738401
241	28611	2.677	739861
241	28611	2.677	741321
241	28612	2.677	742781
241	28612	2.677	744241
241	28613	2.677	745701
241	28613	2.677	747161
241	28614	2.677	748621
241	28614	2.677	750081
241	28615	2.677	751541
241	28615	2.677	753001
241	28616	2.677	754461
241	28616	2.677	755921
241	28617	2.677	757381
241	28617	2.677	758841
241	28994	2.682	760301
241	28994	2.682	761761
241	28995	2.682	763221
241	28995	2.682	764681
241	29098	2.683	766141
241	29098	2.683	767601
241	29099	2.683	769061
241	29099	2.683	770521
241	29100	2.683	771981
241	29100	2.683	773441
241	29101	2.683	774901
241	29101	2.683	776361
241	29102	2.683	777821
241	29102	2.683	779281
241	29103	2.683	780741
241	29103	2.683	782201
241	29104	2.683	783661
241	29104	2.683	785121
241	29105	2.683	786581
241	29105	2.683	788041
241	29500	2.688	789501
241	29500	2.688	790961
241	31144	2.707	792421
241	31144	2.707	793881
241	31145	2.707	795341
241	31145	2.707	796801
241	31146	2.707	798261
241	31146	2.707	799721
241	31147	2.707	801181
241	31147	2.707	802641
241	31464	2.708	804101
241	31464	2.708	805561
241	31465	2.708	807021
241	31465	2.708	808481
241	31466	2.708	809941
241	31466	2.708	811401
241	31467	2.708	812861
241	31467	2.708	814321
241	31468	2.708	815781
241	31468	2.708	817241
241	31469	2.708	818701
241	31469	2.708	820161
241	31470	2.708	821621
241	31470	2.708	823081
241	31471	2.708	824541
241	31471	2.708	826001
241	31472	2.708	827461
241	31472	2.708	828921
241	31473	2.708	830381
241	31473	2.708	831841
241	31840	2.713	833301
241	31840	2.713	834761
241	31841	2.713	836221
241	31841	2.713	837681
241	31842	2.713	839141
241	31842	2.713	840601
241	31843	2.713	842061
241	31843	2.713	843521
242	22997	2.428	603703
242	23363	2.462	604453
242	23366	2.462	604453
242	23730	2.496	604453
242	23730	2.496	604453
242	24101	2.53	604453
242	24101	2.53	604453
242	24102	2.53	604453
242	24102	2.53	604453
242	24592	2.564	604453
242	24592	2.564	604453
242	24593	2.564	604453
242	24593	2.564	604453
242	24682	2.569	604453
242	24682	2.569	604453
242	24683	2.569	604453
242	24683	2.569	604453
242	25283	2.598	604453
242	25283	2.598	604453
242	25284	2.598	604453
242	25284	2.598	604453
242	25410	2.603	604453
242	25410	2.603	604453
242	25411	2.603	604453
242	25411	2.603	604453
242	25476	2.604	604453
242	25476	2.604	604453
242	25477	2.604	604453
242	25477	2.604	604453
242	25582	2.609	604453
242	25582	2.609	604453
242	25583	2.609	604453
242	25583	2.609	604453
242	26365	2.632	604453
242	26365	2.632	604453
242	26366	2.632	604453
242	26366	2.632	604453
242	26494	2.637	604453
242	26494	2.637	604453
242	26495	2.637	604453
242	26495	2.637	604453
242	26630	2.638	604453
242	26630	2.638	604453
242	26631	2.638	604453
242	26631	2.638	604453
242	26762	2.643	604453
242	26762	2.643	604453
242	26763	2.643	604453
242	26763	2.643	604453
242	26764	2.643	604453
242	26764	2.643	604453
242	26765	2.643	604453
242	26765	2.643	604453
242	26766	2.643	604453
242	26766	2.643	604453
242	26767	2.643	604453
242	26767	2.643	604453
242	26768	2.643	604453
242	26768	2.643	604453
242	26769	2.643	604453
242	26769	2.643	604453
242	26770	2.643	604453
242	26770	2.643	604453
242	26771	2.643	604453
242	26771	2.643	604453
242	28161	2.668	604453
242	28161	2.668	604453
242	28162	2.668	604453
242	28162	2.668	604453
242	28239	2.671	604453
242	28239	2.671	604453
242	28240	2.671	604453
242	28240	2.671	604453
242	28421	2.672	604453
242	28421	2.672	604453
242	28422	2.672	604453
242	28422	2.672	604453
242	28603	2.677	604453
242	28603	2.677	604453
242	28604	2.677	604453
242	28604	2.677	604453
242	28605	2.677	604453
242	28605	2.677	604453
242	28606	2.677	604453
242	28606	2.677	604453
242	28607	2.677	604453
242	28607	2.677	604453
242	28608	2.677	604453
242	28608	2.677	604453
242	28609	2.677	604453
242	28609	2.677	604453
242	28610	2.677	604453
242	28610	2.677	604453
242	28611	2.677	604453
242	28611	2.677	604453
242	28612	2.677	604453
242	28612	2.677	604453
242	28613	2.677	604453
242	28613	2.677	604453
242	28614	2.677	604453
242	28614	2.677	604453
242	28615	2.677	604453
242	28615	2.677	604453
242	28616	2.677	604453
242	28616	2.677	604453
242	28617	2.677	604453
242	28617	2.677	604453
242	28994	2.682	604453
242	28994	2.682	604453
242	28995	2.682	604453
242	28995	2.682	604453
242	29098	2.683	604453
242	29098	2.683	604453
242	29099	2.683	604453
242	29099	2.683	604453
242	29100	2.683	604453
242	29100	2.683	604453
242	29101	2.683	604453
242	29101	2.683	604453
242	29102	2.683	604453
242	29102	2.683	604453
242	29103	2.683	604453
242	29103	2.683	604453
242	29104	2.683	604453
242	29104	2.683	604453
242	29105	2.683	604453
242	29105	2.683	604453
242	29500	2.688	604453
242	29500	2.688	604453
242	31144	2.707	604453
242	31144	2.707	604453
242	31145	2.707	604453
242	31145	2.707	604453
242	31146	2.707	604453
242	31146	2.707	604453
242	31147	2.707	604453
242	31147	2.707	604453
242	31464	2.708	604453
242	31464	2.708	604453
242	31465	2.708	604453
242	31465	2.708	604453
242	31466	2.708	604453
242	31466	2.708	604453
242	31467	2.708	604453
242	31467	2.708	604453
242	31468	2.708	604453
242	31468	2.708	604453
242	31469	2.708	604453
242	31469	2.708	604453
242	31470	2.708	604453
242	31470	2.708	604453
242	31471	2.708	604453
242	31471	2.708	604453
242	31472	2.708	604453
242	31472	2.708	604453
242	31473	2.708	604453
242	31473	2.708	604453
242	31840	2.713	604453
242	31840	2.713	604453
242	31841	2.713	604453
242	31841	2.713	604453
242	31842	2.713	604453
242	31842	2.713	604453
242	31843	2.713	604453
242	31843	2.713	604453
242	34467	2.749	604454
242	34471	2.749	604454
243	22997	2.428	603702
243	23295	2.456	603703
243	23363	2.462	603703
243	23730	2.496	604453
243	24101	2.53	604453
243	24102	2.53	604453
243	24592	2.564	604453
243	24593	2.564	604453
243	24682	2.569	604453
243	24683	2.569	604453
243	25283	2.598	604453
243	25284	2.598	604453
243	25410	2.603	604453
243	25411	2.603	604453
243	25476	2.604	604453
243	25477	2.604	604453
243	25582	2.609	604453
243	25583	2.609	604453
243	26365	2.632	604453
243	26366	2.632	604453
243	26494	2.637	604453
243	26495	2.637	604453
243	26630	2.638	604453
243	26631	2.638	604453
243	26762	2.643	604453
243	26763	2.643	604453
243	26764	2.643	604453
243	26765	2.643	604453
243	26766	2.643	604453
243	26767	2.643	604453
243	26768	2.643	604453
243	26769	2.643	604453
243	26770	2.643	604453
243	26771	2.643	604453
243	28161	2.668	604453
243	28162	2.668	604453
243	28239	2.671	604453
243	28240	2.671	604453
243	28421	2.672	604453
243	28422	2.672	604453
243	28603	2.677	604453
243	28604	2.677	604453
243	28605	2.677	604453
243	28606	2.677	604453
243	28607	2.677	604453
243	28608	2.677	604453
243	28609	2.677	604453
243	28610	2.677	604453
243	28611	2.677	604453
243	28612	2.677	604453
243	28613	2.677	604453
243	28614	2.677	604453
243	28615	2.677	604453
243	28616	2.677	604453
243	28617	2.677	604453
243	28994	2.682	604453
243	28995	2.682	604453
243	29098	2.683	604453
243	29099	2.683	604453
243	29100	2.683	604453
243	29101	2.683	604453
243	29102	2.683	604453
243	29103	2.683	604453
243	29104	2.683	604453
243	29105	2.683	604453
243	29500	2.688	604453
243	31144	2.707	604453
243	31145	2.707	604453
243	31146	2.707	604453
243	31147	2.707	604453
243	31464	2.708	604453
243	31465	2.708	604453
243	31466	2.708	604453
243	31467	2.708	604453
243	31468	2.708	604453
243	31469	2.708	604453
243	31470	2.708	604453
243	31471	2.708	604453
[...]
556	111776	9.182	2233110
556	111777	9.182	2233110
556	111778	9.182	2233110
556	111832	9.183	2233110
556	111833	9.183	2233110
556	111834	9.183	2233110
556	113175	9.203	2233110
556	113176	9.203	2233110
556	113265	9.204	2233110
556	113266	9.204	2233110
556	113351	9.205	2233110
556	113352	9.205	2233110
556	113353	9.205	2233110
556	113444	9.206	2233110
556	113445	9.206	2233110
556	113446	9.206	2233110
556	113536	9.207	2233110
556	113537	9.207	2233110
556	113621	9.208	2233110
556	113622	9.208	2233110
556	113706	9.209	2233110
556	113707	9.209	2233110
556	113708	9.209	2233110
556	113796	9.21	2233110
556	113797	9.21	2233110
556	113884	9.211	2233110
556	113885	9.211	2233110
556	113886	9.211	2233110
556	113996	9.212	2233110
556	113997	9.212	2233110
556	113998	9.212	2233110
556	114094	9.213	2233110
556	114095	9.213	2233110
556	114096	9.213	2233110
556	114190	9.214	2233110
556	114191	9.214	2233110
556	114192	9.214	2233110
556	114276	9.215	2233110
556	114277	9.215	2233110
556	114278	9.215	2233110
556	114362	9.216	2233110
556	114363	9.216	2233110
556	114364	9.216	2233110
556	114451	9.217	2233110
556	114452	9.217	2233110
556	114453	9.217	2233110
556	114600	9.218	2233110
556	114601	9.218	2233110
556	114602	9.218	2233110
556	114667	9.219	2233110
556	114668	9.219	2233110
556	114669	9.219	2233110
556	114719	9.22	2233110
556	114720	9.22	2233110
556	114721	9.22	2233110
556	114766	9.221	2233110
556	114767	9.221	2233110
556	114768	9.221	2233110
556	114814	9.222	2233110
556	114815	9.222	2233110
556	116167	9.233	2233110
556	116168	9.233	2233110
556	116304	9.234	2233110
556	116305	9.234	2233110
556	116306	9.234	2233110
556	116541	9.235	2233110
556	116542	9.235	2233110
556	116636	9.236	2233110
556	116637	9.236	2233110
556	116638	9.236	2233110
556	116788	9.238	2233110
556	116789	9.238	2233110
556	116852	9.239	2233110
556	116853	9.239	2233110
556	116854	9.239	2233110
556	117049	9.24	2233110
556	117050	9.24	2233110
556	117126	9.241	2233110
556	117127	9.241	2233110
556	117128	9.241	2233110
556	117240	9.242	2233110
556	117241	9.242	2233110
556	117242	9.242	2233110
556	117335	9.243	2233110
556	117336	9.243	2233110
556	117337	9.243	2233110
556	117429	9.244	2233110
556	117430	9.244	2233110
556	117606	9.246	2233110
556	117607	9.246	2233110
556	117691	9.247	2233110
556	117692	9.247	2233110
556	117851	9.248	2233110
556	117852	9.248	2233110
556	117853	9.248	2233110
556	117950	9.249	2233110
556	117951	9.249	2233110
556	117952	9.249	2233110
556	118049	9.25	2233110
556	118050	9.25	2233110
556	118051	9.25	2233110
556	118143	9.251	2233110
556	118144	9.251	2233110
556	118145	9.251	2233110
556	118236	9.252	2233110
556	118237	9.252	2233110
556	118238	9.252	2233110
556	118352	9.253	2233110
556	118353	9.253	2233110
556	118354	9.253	2233110
556	118572	9.254	2233110
556	118573	9.254	2233110
556	118574	9.254	2233110
556	118677	9.255	2233110
556	118678	9.255	2233110
556	118679	9.255	2233110
556	118772	9.256	2233110
556	118773	9.256	2233110
556	118774	9.256	2233110
556	118865	9.257	2233110
556	118866	9.257	2233110
556	118867	9.257	2233110
556	118960	9.258	2233110
556	118961	9.258	2233110
556	118962	9.258	2233110
556	119263	9.259	2233110
556	119264	9.259	2233110
556	119265	9.259	2233110
556	119537	9.26	2233110
556	119538	9.26	2233110
556	119633	9.261	2233110
556	119634	9.261	2233110
556	119635	9.261	2233110
556	119720	9.262	2233110
556	119721	9.262	2233110
556	119722	9.262	2233110
556	119800	9.263	2233110
556	119801	9.263	2233110
556	119802	9.263	2233110
556	119888	9.264	2233110
556	119889	9.264	2233110
556	119890	9.264	2233110
556	120081	9.265	2233110
556	120082	9.265	2233110
556	120135	9.266	2233110
556	120136	9.266	2233110
556	120137	9.266	2233110
556	120190	9.267	2233110
556	120191	9.267	2233110
556	120192	9.267	2233110
556	120239	9.268	2233110
556	120240	9.268	2233110
556	120241	9.268	2233110
556	120282	9.269	2233110
556	120283	9.269	2233110
556	121325	9.282	2233110
556	121326	9.282	2233110
556	121418	9.283	2233110
556	121419	9.283	2233110
556	121420	9.283	2233110
556	121512	9.284	2233110
556	121513	9.284	2233110
556	121514	9.284	2233110
556	121607	9.285	2233110
556	121608	9.285	2233110
556	121609	9.285	2233110
556	121700	9.286	2233110
556	121701	9.286	2233110
556	121702	9.286	2233110
556	121844	9.287	2233110
556	121845	9.287	2233110
556	121936	9.288	2233110
556	121937	9.288	2233110
556	121938	9.288	2233110
556	122027	9.289	2233110
556	122028	9.289	2233110
556	122029	9.289	2233110
556	122111	9.29	2233110
556	122112	9.29	2233110
556	122113	9.29	2233110
556	122210	9.291	2233110
556	122211	9.291	2233110
556	122212	9.291	2233110
556	122286	9.292	2233110
556	122287	9.292	2233110
556	122288	9.292	2233110
556	122348	9.293	2233110
556	122349	9.293	2233110
556	122350	9.293	2233110
556	122407	9.294	2233110
556	122408	9.294	2233110
556	122409	9.294	2233110
556	122461	9.295	2233110
556	122462	9.295	2233110
556	122463	9.295	2233110
556	122506	9.296	2233110
556	122507	9.296	2233110
556	122508	9.296	2233110
556	122575	9.297	2233110
556	122576	9.297	2233110
556	123443	9.322	2233111
556	123444	9.322	2233111
557	106831	8.957	750
557	107233	8.991	0
557	122581	9.297	1
557	123443	9.322	0
558	107233	8.991	0
558	107300	8.997	0
558	107650	9.031	0
558	107651	9.031	0
558	108077	9.065	0
558	108078	9.065	0
558	108107	9.066	0
558	108108	9.066	0
558	108676	9.099	0
558	108677	9.099	0
558	108720	9.1	0
558	108721	9.1	0
558	108796	9.104	0
558	108797	9.104	0
558	108830	9.105	0
558	108831	9.105	0
558	109531	9.133	0
558	109532	9.133	0
558	109602	9.134	0
558	109603	9.134	0
558	109775	9.138	0
558	109776	9.138	0
558	109816	9.139	0
558	109817	9.139	0
558	109818	9.139	0
558	109859	9.14	0
558	109860	9.14	0
558	109861	9.14	0
558	109903	9.141	0
558	109904	9.141	0
558	109956	9.142	0
558	109957	9.142	0
558	110811	9.167	0
558	110812	9.167	0
558	110884	9.168	0
558	110885	9.168	0
558	111078	9.172	0
558	111079	9.172	0
558	111157	9.173	0
558	111158	9.173	0
558	111159	9.173	0
558	111238	9.174	0
558	111239	9.174	0
558	111240	9.174	0
558	111328	9.175	0
558	111329	9.175	0
558	111425	9.176	0
558	111426	9.176	0
558	111553	9.178	0
558	111554	9.178	0
558	111601	9.179	0
558	111602	9.179	0
558	111603	9.179	0
558	111647	9.18	0
558	111648	9.18	0
558	111710	9.181	0
558	111711	9.181	0
558	111712	9.181	0
558	111776	9.182	0
558	111777	9.182	0
558	111778	9.182	0
558	111832	9.183	0
558	111833	9.183	0
558	111834	9.183	0
558	113175	9.203	0
558	113176	9.203	0
558	113265	9.204	0
558	113266	9.204	0
558	113351	9.205	0
558	113352	9.205	0
558	113353	9.205	0
558	113444	9.206	0
558	113445	9.206	0
558	113446	9.206	0
558	113536	9.207	0
558	113537	9.207	0
558	113621	9.208	0
558	113622	9.208	0
558	113706	9.209	0
558	113707	9.209	0
558	113708	9.209	0
558	113796	9.21	0
558	113797	9.21	0
558	113884	9.211	0
558	113885	9.211	0
558	113886	9.211	0
558	113996	9.212	0
558	113997	9.212	0
558	113998	9.212	0
558	114094	9.213	0
558	114095	9.213	0
558	114096	9.213	0
558	114190	9.214	0
558	114191	9.214	0
558	114192	9.214	0
558	114276	9.215	0
558	114277	9.215	0
558	114278	9.215	0
558	114362	9.216	0
558	114363	9.216	0
558	114364	9.216	0
558	114451	9.217	0
558	114452	9.217	0
558	114453	9.217	0
558	114600	9.218	0
558	114601	9.218	0
558	114602	9.218	0
558	114667	9.219	0
558	114668	9.219	0
558	114669	9.219	0
558	114719	9.22	0
558	114720	9.22	0
558	114721	9.22	0
558	114766	9.221	0
558	114767	9.221	0
558	114768	9.221	0
558	114814	9.222	0
558	114815	9.222	0
558	116167	9.233	0
558	116168	9.233	0
558	116304	9.234	0
558	116305	9.234	0
558	116306	9.234	0
558	116541	9.235	0
558	116542	9.235	0
558	116636	9.236	0
558	116637	9.236	0
558	116638	9.236	0
558	116788	9.238	0
558	116789	9.238	0
558	116852	9.239	0
558	116853	9.239	0
558	116854	9.239	0
558	117049	9.24	0
558	117050	9.24	0
558	117126	9.241	0
558	117127	9.241	0
558	117128	9.241	0
558	117240	9.242	0
558	117241	9.242	0
558	117242	9.242	0
558	117335	9.243	0
558	117336	9.243	0
558	117337	9.243	0
558	117429	9.244	0
558	117430	9.244	0
558	117606	9.246	0
558	117607	9.246	0
558	117691	9.247	0
558	117692	9.247	0
558	117851	9.248	0
558	117852	9.248	0
558	117853	9.248	0
558	117950	9.249	0
558	117951	9.249	0
558	117952	9.249	0
558	118049	9.25	0
558	118050	9.25	0
558	118051	9.25	0
558	118143	9.251	0
558	118144	9.251	0
558	118145	9.251	0
558	118236	9.252	0
558	118237	9.252	0
558	118238	9.252	0
558	118352	9.253	0
558	118353	9.253	0
558	118354	9.253	0
558	118572	9.254	0
558	118573	9.254	0
558	118574	9.254	0
558	118677	9.255	0
558	118678	9.255	0
558	118679	9.255	0
558	118772	9.256	0
558	118773	9.256	0
558	118774	9.256	0
558	118865	9.257	0
558	118866	9.257	0
558	118867	9.257	0
558	118960	9.258	0
558	118961	9.258	0
558	118962	9.258	0
558	119263	9.259	0
558	119264	9.259	0
558	119265	9.259	0
558	119537	9.26	0
558	119538	9.26	0
558	119633	9.261	0
558	119634	9.261	0
558	119635	9.261	0
558	119720	9.262	0
558	119721	9.262	0
558	119722	9.262	0
558	119800	9.263	0
558	119801	9.263	0
558	119802	9.263	0
558	119888	9.264	0
558	119889	9.264	0
558	119890	9.264	0
558	120081	9.265	0
558	120082	9.265	0
558	120135	9.266	0
558	120136	9.266	0
558	120137	9.266	0
558	120190	9.267	0
558	120191	9.267	0
558	120192	9.267	0
558	120239	9.268	0
558	120240	9.268	0
558	120241	9.268	0
558	120282	9.269	0
558	120283	9.269	0
558	121325	9.282	0
558	121326	9.282	0
558	121418	9.283	0
558	121419	9.283	0
558	121420	9.283	0
558	121512	9.284	0
558	121513	9.284	0
558	121514	9.284	0
558	121607	9.285	0
558	121608	9.285	0
558	121609	9.285	0
558	121700	9.286	0
558	121701	9.286	0
558	121702	9.286	0
558	121844	9.287	0
558	121845	9.287	0
558	121936	9.288	0
558	121937	9.288	0
558	121938	9.288	0
558	122027	9.289	0
558	122028	9.289	0
558	122029	9.289	0
558	122111	9.29	0
558	122112	9.29	0
558	122113	9.29	0
558	122210	9.291	0
558	122211	9.291	0
558	122212	9.291	0
558	122286	9.292	0
558	122287	9.292	0
558	122288	9.292	0
558	122348	9.293	0
558	122349	9.293	0
558	122350	9.293	0
558	122407	9.294	0
558	122408	9.294	0
558	122409	9.294	0
558	122461	9.295	0
558	122462	9.295	0
558	122463	9.295	0
558	122506	9.296	0
558	122507	9.296	0
558	122508	9.296	0
558	122575	9.297	0
558	122576	9.297	0
558	123443	9.322	0
558	123444	9.322	0
565	106569	8.929438620904	0
565	106827	8.957	0
565	106831	8.957	0
565	107300	8.997	0
565	107300	8.997	0
565	107650	9.031	0
565	107650	9.031	0
565	107651	9.031	0
565	107651	9.031	0
565	108077	9.065	0
565	108077	9.065	0
565	108078	9.065	0
565	108078	9.065	0
565	108107	9.066	0
565	108107	9.066	0
565	108108	9.066	0
565	108108	9.066	0
565	108676	9.099	0
565	108676	9.099	0
565	108677	9.099	0
565	108677	9.099	0
565	108720	9.1	0
565	108720	9.1	0
565	108721	9.1	0
565	108721	9.1	0
565	108796	9.104	0
565	108796	9.104	0
565	108797	9.104	0
565	108797	9.104	0
565	108830	9.105	0
565	108830	9.105	0
565	108831	9.105	0
565	108831	9.105	0
565	109531	9.133	0
565	109531	9.133	0
565	109532	9.133	0
565	109532	9.133	0
565	109602	9.134	0
565	109602	9.134	0
565	109603	9.134	0
565	109603	9.134	0
565	109775	9.138	0
565	109775	9.138	0
565	109776	9.138	0
565	109776	9.138	0
565	109816	9.139	0
565	109816	9.139	0
565	109817	9.139	0
565	109817	9.139	0
565	109818	9.139	0
565	109818	9.139	0
565	109859	9.14	0
565	109859	9.14	0
565	109860	9.14	0
565	109860	9.14	0
565	109861	9.14	0
565	109861	9.14	0
565	109903	9.141	0
565	109903	9.141	0
565	109904	9.141	0
565	109904	9.141	0
565	109956	9.142	0
565	109956	9.142	0
565	109957	9.142	0
565	109957	9.142	0
565	110811	9.167	0
565	110811	9.167	0
565	110812	9.167	0
565	110812	9.167	0
565	110884	9.168	0
565	110884	9.168	0
565	110885	9.168	0
565	110885	9.168	0
565	111078	9.172	0
565	111078	9.172	0
565	111079	9.172	0
565	111079	9.172	0
565	111157	9.173	0
565	111157	9.173	0
565	111158	9.173	0
565	111158	9.173	0
565	111159	9.173	0
565	111159	9.173	0
565	111238	9.174	0
565	111238	9.174	0
565	111239	9.174	0
565	111239	9.174	0
565	111240	9.174	0
565	111240	9.174	0
565	111328	9.175	0
565	111328	9.175	0
565	111329	9.175	0
565	111329	9.175	0
565	111425	9.176	0
565	111425	9.176	0
565	111426	9.176	0
565	111426	9.176	0
565	111553	9.178	0
565	111553	9.178	0
565	111554	9.178	0
565	111554	9.178	0
565	111601	9.179	0
565	111601	9.179	0
565	111602	9.179	0
565	111602	9.179	0
565	111603	9.179	0
565	111603	9.179	0
565	111647	9.18	0
565	111647	9.18	0
565	111648	9.18	0
565	111648	9.18	0
565	111710	9.181	0
565	111710	9.181	0
565	111711	9.181	0
565	111711	9.181	0
565	111712	9.181	0
565	111712	9.181	0
565	111776	9.182	0
565	111776	9.182	0
565	111777	9.182	0
565	111777	9.182	0
565	111778	9.182	0
565	111778	9.182	0
565	111832	9.183	0
565	111832	9.183	0
565	111833	9.183	0
565	111833	9.183	0
565	111834	9.183	0
565	111834	9.183	0
565	113175	9.203	0
565	113175	9.203	0
565	113176	9.203	0
565	113176	9.203	0
565	113265	9.204	0
565	113265	9.204	0
565	113266	9.204	0
565	113266	9.204	0
565	113351	9.205	0
565	113351	9.205	0
565	113352	9.205	0
565	113352	9.205	0
565	113353	9.205	0
565	113353	9.205	0
565	113444	9.206	0
565	113444	9.206	0
565	113445	9.206	0
565	113445	9.206	0
565	113446	9.206	0
565	113446	9.206	0
565	113536	9.207	0
565	113536	9.207	0
565	113537	9.207	0
565	113537	9.207	0
565	113621	9.208	0
565	113621	9.208	0
565	113622	9.208	0
565	113622	9.208	0
565	113706	9.209	0
565	113706	9.209	0
565	113707	9.209	0
565	113707	9.209	0
565	113708	9.209	0
565	113708	9.209	0
565	113796	9.21	0
565	113796	9.21	0
565	113797	9.21	0
565	113797	9.21	0
565	113884	9.211	0
565	113884	9.211	0
565	113885	9.211	0
565	113885	9.211	0
565	113886	9.211	0
565	113886	9.211	0
565	113996	9.212	0
565	113996	9.212	0
565	113997	9.212	0
565	113997	9.212	0
565	113998	9.212	0
565	113998	9.212	0
565	114094	9.213	0
565	114094	9.213	0
565	114095	9.213	0
565	114095	9.213	0
565	114096	9.213	0
565	114096	9.213	0
565	114190	9.214	0
565	114190	9.214	0
565	114191	9.214	0
565	114191	9.214	0
565	114192	9.214	0
565	114192	9.214	0
565	114276	9.215	0
565	114276	9.215	0
565	114277	9.215	0
565	114277	9.215	0
565	114278	9.215	0
565	114278	9.215	0
565	114362	9.216	0
565	114362	9.216	0
565	114363	9.216	0
565	114363	9.216	0
565	114364	9.216	0
565	114364	9.216	0
565	114451	9.217	0
565	114451	9.217	0
565	114452	9.217	0
565	114452	9.217	0
565	114453	9.217	0
565	114453	9.217	0
565	114600	9.218	0
565	114600	9.218	0
565	114601	9.218	0
565	114601	9.218	0
565	114602	9.218	0
565	114602	9.218	0
565	114667	9.219	0
565	114667	9.219	0
565	114668	9.219	0
565	114668	9.219	0
565	114669	9.219	0
565	114669	9.219	0
565	114719	9.22	0
565	114719	9.22	0
565	114720	9.22	0
565	114720	9.22	0
565	114721	9.22	0
565	114721	9.22	0
565	114766	9.221	0
565	114766	9.221	0
565	114767	9.221	0
565	114767	9.221	0
565	114768	9.221	0
565	114768	9.221	0
565	114814	9.222	0
565	114814	9.222	0
565	114815	9.222	0
565	114815	9.222	0
565	116167	9.233	0
565	116167	9.233	0
565	116168	9.233	0
565	116168	9.233	0
565	116304	9.234	0
565	116304	9.234	0
565	116305	9.234	0
565	116305	9.234	0
565	116306	9.234	0
565	116306	9.234	0
565	116541	9.235	0
565	116541	9.235	0
565	116542	9.235	0
565	116542	9.235	0
565	116636	9.236	0
565	116636	9.236	0
565	116637	9.236	0
565	116637	9.236	0
565	116638	9.236	0
565	116638	9.236	0
565	116788	9.238	0
565	116788	9.238	0
565	116789	9.238	0
565	116789	9.238	0
565	116852	9.239	0
565	116852	9.239	0
565	116853	9.239	0
565	116853	9.239	0
565	116854	9.239	0
565	116854	9.239	0
565	117049	9.24	0
565	117049	9.24	0
565	117050	9.24	0
565	117050	9.24	0
565	117126	9.241	0
565	117126	9.241	0
565	117127	9.241	0
565	117127	9.241	0
565	117128	9.241	0
565	117128	9.241	0
565	117240	9.242	0
565	117240	9.242	0
565	117241	9.242	0
565	117241	9.242	0
565	117242	9.242	0
565	117242	9.242	0
565	117335	9.243	0
565	117335	9.243	0
565	117336	9.243	0
565	117336	9.243	0
565	117337	9.243	0
565	117337	9.243	0
565	117429	9.244	0
565	117429	9.244	0
565	117430	9.244	0
565	117430	9.244	0
565	117606	9.246	0
565	117606	9.246	0
565	117607	9.246	0
565	117607	9.246	0
565	117691	9.247	0
565	117691	9.247	0
565	117692	9.247	0
565	117692	9.247	0
565	117851	9.248	0
565	117851	9.248	0
565	117852	9.248	0
565	117852	9.248	0
565	117853	9.248	0
565	117853	9.248	0
565	117950	9.249	0
565	117950	9.249	0
565	117951	9.249	0
565	117951	9.249	0
565	117952	9.249	0
565	117952	9.249	0
565	118049	9.25	0
565	118049	9.25	0
565	118050	9.25	0
565	118050	9.25	0
565	118051	9.25	0
565	118051	9.25	0
565	118143	9.251	0
565	118143	9.251	0
565	118144	9.251	0
565	118144	9.251	0
565	118145	9.251	0
565	118145	9.251	0
565	118236	9.252	0
565	118236	9.252	0
565	118237	9.252	0
565	118237	9.252	0
565	118238	9.252	0
565	118238	9.252	0
565	118352	9.253	0
565	118352	9.253	0
565	118353	9.253	0
565	118353	9.253	0
565	118354	9.253	0
565	118354	9.253	0
565	118572	9.254	0
565	118572	9.254	0
565	118573	9.254	0
565	118573	9.254	0
565	118574	9.254	0
565	118574	9.254	0
565	118677	9.255	0
565	118677	9.255	0
565	118678	9.255	0
565	118678	9.255	0
565	118679	9.255	0
565	118679	9.255	0
565	118772	9.256	0
565	118772	9.256	0
565	118773	9.256	0
565	118773	9.256	0
565	118774	9.256	0
565	118774	9.256	0
565	118865	9.257	0
565	118865	9.257	0
565	118866	9.257	0
565	118866	9.257	0
565	118867	9.257	0
565	118867	9.257	0
565	118960	9.258	0
565	118960	9.258	0
565	118961	9.258	0
565	118961	9.258	0
565	118962	9.258	0
565	118962	9.258	0
565	119263	9.259	0
565	119263	9.259	0
565	119264	9.259	0
565	119264	9.259	0
565	119265	9.259	0
565	119265	9.259	0
565	119537	9.26	0
565	119537	9.26	0
565	119538	9.26	0
565	119538	9.26	0
565	119633	9.261	0
565	119633	9.261	0
565	119634	9.261	0
565	119634	9.261	0
565	119635	9.261	0
565	119635	9.261	0
565	119720	9.262	0
565	119720	9.262	0
565	119721	9.262	0
565	119721	9.262	0
565	119722	9.262	0
565	119722	9.262	0
565	119800	9.263	0
565	119800	9.263	0
565	119801	9.263	0
565	119801	9.263	0
565	119802	9.263	0
565	119802	9.263	0
565	119888	9.264	0
565	119888	9.264	0
565	119889	9.264	0
565	119889	9.264	0
565	119890	9.264	0
565	119890	9.264	0
565	120081	9.265	0
565	120081	9.265	0
565	120082	9.265	0
565	120082	9.265	0
565	120135	9.266	0
565	120135	9.266	0
565	120136	9.266	0
565	120136	9.266	0
565	120137	9.266	0
565	120137	9.266	0
565	120190	9.267	0
565	120190	9.267	0
565	120191	9.267	0
565	120191	9.267	0
565	120192	9.267	0
565	120192	9.267	0
565	120239	9.268	0
565	120239	9.268	0
565	120240	9.268	0
565	120240	9.268	0
565	120241	9.268	0
565	120241	9.268	0
565	120282	9.269	0
565	120282	9.269	0
565	120283	9.269	0
565	120283	9.269	0
565	121325	9.282	0
565	121325	9.282	0
565	121326	9.282	0
565	121326	9.282	0
565	121418	9.283	0
565	121418	9.283	0
565	121419	9.283	0
565	121419	9.283	0
565	121420	9.283	0
565	121420	9.283	0
565	121512	9.284	0
565	121512	9.284	0
565	121513	9.284	0
565	121513	9.284	0
565	121514	9.284	0
565	121514	9.284	0
565	121607	9.285	0
565	121607	9.285	0
565	121608	9.285	0
565	121608	9.285	0
565	121609	9.285	0
565	121609	9.285	0
565	121700	9.286	0
565	121700	9.286	0
565	121701	9.286	0
565	121701	9.286	0
565	121702	9.286	0
565	121702	9.286	0
565	121844	9.287	0
565	121844	9.287	0
565	121845	9.287	0
565	121845	9.287	0
565	121936	9.288	0
565	121936	9.288	0
565	121937	9.288	0
565	121937	9.288	0
565	121938	9.288	0
565	121938	9.288	0
565	122027	9.289	0
565	122027	9.289	0
565	122028	9.289	0
565	122028	9.289	0
565	122029	9.289	0
565	122029	9.289	0
565	122111	9.29	0
565	122111	9.29	0
565	122112	9.29	0
565	122112	9.29	0
565	122113	9.29	0
565	122113	9.29	0
565	122210	9.291	0
565	122210	9.291	0
565	122211	9.291	0
565	122211	9.291	0
565	122212	9.291	0
565	122212	9.291	0
565	122286	9.292	0
565	122286	9.292	0
565	122287	9.292	0
565	122287	9.292	0
565	122288	9.292	0
565	122288	9.292	0
565	122348	9.293	0
565	122348	9.293	0
565	122349	9.293	0
565	122349	9.293	0
565	122350	9.293	0
565	122350	9.293	0
565	122407	9.294	0
565	122407	9.294	0
565	122408	9.294	0
565	122408	9.294	0
565	122409	9.294	0
565	122409	9.294	0
565	122461	9.295	0
565	122461	9.295	0
565	122462	9.295	0
565	122462	9.295	0
565	122463	9.295	0
565	122463	9.295	0
565	122506	9.296	0
565	122506	9.296	0
565	122507	9.296	0
565	122507	9.296	0
565	122508	9.296	0
565	122508	9.296	0
565	122575	9.297	0
565	122575	9.297	0
565	122576	9.297	0
565	122576	9.297	0
565	122581	9.297	0
565	123444	9.322	0
567	107233	8.991	2920
567	123443	9.322	4380
569	107233	8.991	0.034
570	107233	8.991	0.00425
571	107233	8.991	0.6605
572	107233	8.991	2.64625
