version 2
run D2D-0-20170208-12:18:05-14756
attr configname D2D
attr datetime 20170208-12:18:05
attr experiment D2D
attr inifile omnetpp.ini
attr iterationvars ""
attr iterationvars2 $repetition=0
attr measurement ""
attr network playground.SingleCell_D2D
attr processid 14756
attr repetition 0
attr replication #0
attr resultdir results
attr runnumber 0
attr seedset 0
param **.**.amcMode "\"AUTO\""
param **.amcMode "\"D2D\""
param **.channelControl.alpha 1.0
param **.channelControl.carrierFrequency 2100e+6Hz
param **.channelControl.pMax 10W
param **.d2dCqi 7
param **.deployer.numRbDl 50
param **.deployer.numRbUl 50
param **.fbDelay 1
param **.feedbackComputation "xmldoc(\"config_channel.xml\")"
param **.mobility.constraintAreaMaxZ 0m
param **.mobility.constraintAreaMinZ 0m
param **.nic.phy.channelModel "xmldoc(\"config_channel.xml\")"
param **.numBands 50
param **.rbAllocationType "\"localized\""
param **.routingRecorder.enabled false
param **.tcp.advertisedWindow 1460000
param **.tcp.mss 1460
param **.tcp.tcpAlgorithmClass "\"TCPNewReno\""
param **.tcp.windowScalingSupport true
param **.tcpApp[*].dataTransferMode "\"object\""
param **.tcpApp[*].tClose -1s
param **.tcpType "\"TCP\""
param **.usePreconfiguredTxParams false
param *.eNodeB.d2dCapable false
param *.eNodeB.mobility.initFromDisplayString false
param *.eNodeB.mobility.initialX 300m
param *.eNodeB.mobility.initialY 300m
param *.eNodeB.nic.phy.enableD2DCqiReporting true
param *.numUeCell 0
param *.numUeD2DRx 1
param *.numUeD2DTx 1
param *.ue*[0].macCellId 1
param *.ue*[0].masterId 1
param *.ue*[0].mobility.initFromDisplayString false
param *.ueD2D*[*].d2dCapable true
param *.ueD2D*[0].d2dCapable false
param *.ueD2D*[0].numTcpApps 1
param *.ueD2DRx[0].mobility.initialX 310m
param *.ueD2DRx[0].mobility.initialY 350m
param *.ueD2DRx[0].nic.d2dPeerAddresses "\"ueD2DTx[0]\""
param *.ueD2DRx[0].tcpApp[*].localPort 1000
param *.ueD2DRx[0].tcpApp[*].typename "\"TCPGenericSrvApp\""
param *.ueD2DTx[0].mobility.initialX 290m
param *.ueD2DTx[0].mobility.initialY 350m
param *.ueD2DTx[0].nic.d2dPeerAddresses "\"ueD2DRx[0]\""
param *.ueD2DTx[0].tcpApp[0].connectAddress "\"ueD2DRx[0]\""
param *.ueD2DTx[0].tcpApp[0].connectPort 1000
param *.ueD2DTx[0].tcpApp[0].idleInterval exponential(1s)
param *.ueD2DTx[0].tcpApp[0].replyLength exponential(250kB)
param *.ueD2DTx[0].tcpApp[0].requestLength 750B
param *.ueD2DTx[0].tcpApp[0].thinkTime 0s
param *.ueD2DTx[0].tcpApp[0].typename "\"TCPBasicClientApp\""

vector 8  SingleCell_D2D.server.ppp[0].queue  queueLength:vector  ETV
attr interpolationmode  sample-hold
attr title  "queue length, vector"
vector 9  SingleCell_D2D.server.ppp[0].ppp  txState:vector  ETV
attr interpolationmode  sample-hold
attr title  "tx state, vector"
vector 24  SingleCell_D2D.router.ppp[0].queue  queueLength:vector  ETV
attr interpolationmode  sample-hold
attr title  "queue length, vector"
vector 25  SingleCell_D2D.router.ppp[0].ppp  txState:vector  ETV
attr interpolationmode  sample-hold
attr title  "tx state, vector"
vector 35  SingleCell_D2D.router.ppp[1].queue  queueLength:vector  ETV
attr interpolationmode  sample-hold
attr title  "queue length, vector"
vector 36  SingleCell_D2D.router.ppp[1].ppp  txState:vector  ETV
attr interpolationmode  sample-hold
attr title  "tx state, vector"
vector 56  SingleCell_D2D.pgw.ppp[0].queue  queueLength:vector  ETV
attr interpolationmode  sample-hold
attr title  "queue length, vector"
vector 57  SingleCell_D2D.pgw.ppp[0].ppp  txState:vector  ETV
attr interpolationmode  sample-hold
attr title  "tx state, vector"
vector 67  SingleCell_D2D.pgw.pppInterface.queue  queueLength:vector  ETV
attr interpolationmode  sample-hold
attr title  "queue length, vector"
vector 68  SingleCell_D2D.pgw.pppInterface.ppp  txState:vector  ETV
attr interpolationmode  sample-hold
attr title  "tx state, vector"
vector 95  SingleCell_D2D.eNodeB.ppp.queue  queueLength:vector  ETV
attr interpolationmode  sample-hold
attr title  "queue length, vector"
vector 96  SingleCell_D2D.eNodeB.ppp.ppp  txState:vector  ETV
attr interpolationmode  sample-hold
attr title  "tx state, vector"
vector 85  SingleCell_D2D.eNodeB.nic.mac  receivedPacketFromLowerLayer:vector(packetBytes)  ETV
attr interpolationmode  none
attr source  receivedPacketFromLowerLayer
vector 108  SingleCell_D2D.ueD2DTx[0].tcpApp[0]  numActiveSessions:vector  ETV
attr interpolationmode  sample-hold
attr source  sum(connect)
attr title  "number of active sessions, vector"
vector 181  SingleCell_D2D.ueD2DTx[0].tcp  tcpRcvQueueBytes  ETV
vector 168  SingleCell_D2D.ueD2DTx[0].tcp  "advertised window"  ETV
vector 167  SingleCell_D2D.ueD2DTx[0].tcp  "receive window"  ETV
vector 170  SingleCell_D2D.ueD2DTx[0].tcp  "sent ack"  ETV
vector 109  SingleCell_D2D.ueD2DTx[0].nic.pdcpRrc  receivedPacketFromUpperLayer:vector(packetBytes)  ETV
attr interpolationmode  none
attr source  receivedPacketFromUpperLayer
vector 112  SingleCell_D2D.ueD2DTx[0].nic.pdcpRrc  sentPacketToLowerLayer:vector(packetBytes)  ETV
attr interpolationmode  none
attr source  sentPacketToLowerLayer
vector 113  SingleCell_D2D.ueD2DTx[0].nic.mac  receivedPacketFromUpperLayer:vector(packetBytes)  ETV
attr interpolationmode  none
attr source  receivedPacketFromUpperLayer
vector 116  SingleCell_D2D.ueD2DTx[0].nic.mac  sentPacketToLowerLayer:vector(packetBytes)  ETV
attr interpolationmode  none
attr source  sentPacketToLowerLayer
vector 87  SingleCell_D2D.eNodeB.nic.mac  sentPacketToLowerLayer:vector(packetBytes)  ETV
attr interpolationmode  none
attr source  sentPacketToLowerLayer
vector 114  SingleCell_D2D.ueD2DTx[0].nic.mac  receivedPacketFromLowerLayer:vector(packetBytes)  ETV
attr interpolationmode  none
attr source  receivedPacketFromLowerLayer
vector 90  SingleCell_D2D.eNodeB.nic.phy  averageCqiUlvect:vector  ETV
attr source  averageCqiUlvect
attr title  "Average Cqi reported in UL, vector"
attr unit  cqi
vector 88  SingleCell_D2D.eNodeB.nic.mac  measuredItbs:vector  ETV
attr source  measuredItbs
attr title  "TBS index, vector"
attr unit  ""
vector 115  SingleCell_D2D.ueD2DTx[0].nic.mac  sentPacketToUpperLayer:vector(packetBytes)  ETV
attr interpolationmode  none
attr source  sentPacketToUpperLayer
vector 138  SingleCell_D2D.ueD2DRx[0].nic.phy  averageCqiD2Dvect:vector  ETV
attr source  averageCqiD2Dvect
attr title  "Average Cqi reported in D2D, vector"
attr unit  cqi
vector 132  SingleCell_D2D.ueD2DRx[0].nic.mac  receivedPacketFromLowerLayer:vector(packetBytes)  ETV
attr interpolationmode  none
attr source  receivedPacketFromLowerLayer
vector 134  SingleCell_D2D.ueD2DRx[0].nic.mac  sentPacketToLowerLayer:vector(packetBytes)  ETV
attr interpolationmode  none
attr source  sentPacketToLowerLayer
vector 133  SingleCell_D2D.ueD2DRx[0].nic.mac  sentPacketToUpperLayer:vector(packetBytes)  ETV
attr interpolationmode  none
attr source  sentPacketToUpperLayer
vector 128  SingleCell_D2D.ueD2DRx[0].nic.pdcpRrc  receivedPacketFromLowerLayer:vector(packetBytes)  ETV
attr interpolationmode  none
attr source  receivedPacketFromLowerLayer
vector 129  SingleCell_D2D.ueD2DRx[0].nic.pdcpRrc  sentPacketToUpperLayer:vector(packetBytes)  ETV
attr interpolationmode  none
attr source  sentPacketToUpperLayer
vector 147  SingleCell_D2D.ueD2DRx[0].tcp  "rcvd seq"  ETV
vector 148  SingleCell_D2D.ueD2DRx[0].tcp  "rcvd ack"  ETV
vector 144  SingleCell_D2D.ueD2DRx[0].tcp  "advertised window"  ETV
vector 142  SingleCell_D2D.ueD2DRx[0].tcp  "send window"  ETV
vector 157  SingleCell_D2D.ueD2DRx[0].tcp  tcpRcvQueueBytes  ETV
vector 143  SingleCell_D2D.ueD2DRx[0].tcp  "receive window"  ETV
vector 146  SingleCell_D2D.ueD2DRx[0].tcp  "sent ack"  ETV
vector 127  SingleCell_D2D.ueD2DRx[0].nic.pdcpRrc  receivedPacketFromUpperLayer:vector(packetBytes)  ETV
attr interpolationmode  none
attr source  receivedPacketFromUpperLayer
vector 130  SingleCell_D2D.ueD2DRx[0].nic.pdcpRrc  sentPacketToLowerLayer:vector(packetBytes)  ETV
attr interpolationmode  none
attr source  sentPacketToLowerLayer
vector 131  SingleCell_D2D.ueD2DRx[0].nic.mac  receivedPacketFromUpperLayer:vector(packetBytes)  ETV
attr interpolationmode  none
attr source  receivedPacketFromUpperLayer
vector 120  SingleCell_D2D.ueD2DTx[0].nic.phy  averageCqiD2Dvect:vector  ETV
attr source  averageCqiD2Dvect
attr title  "Average Cqi reported in D2D, vector"
attr unit  cqi
vector 110  SingleCell_D2D.ueD2DTx[0].nic.pdcpRrc  receivedPacketFromLowerLayer:vector(packetBytes)  ETV
attr interpolationmode  none
attr source  receivedPacketFromLowerLayer
vector 111  SingleCell_D2D.ueD2DTx[0].nic.pdcpRrc  sentPacketToUpperLayer:vector(packetBytes)  ETV
attr interpolationmode  none
attr source  sentPacketToUpperLayer
vector 171  SingleCell_D2D.ueD2DTx[0].tcp  "rcvd seq"  ETV
vector 172  SingleCell_D2D.ueD2DTx[0].tcp  "rcvd ack"  ETV
vector 166  SingleCell_D2D.ueD2DTx[0].tcp  "send window"  ETV
vector 106  SingleCell_D2D.ueD2DTx[0].tcpApp[0]  sentPk:vector(packetBytes)  ETV
attr interpolationmode  none
attr source  sentPk
attr title  "packets sent, vector(packetBytes)"
vector 169  SingleCell_D2D.ueD2DTx[0].tcp  "sent seq"  ETV
vector 173  SingleCell_D2D.ueD2DTx[0].tcp  "unacked bytes"  ETV
vector 149  SingleCell_D2D.ueD2DRx[0].tcp  "unacked bytes"  ETV
vector 150  SingleCell_D2D.ueD2DRx[0].tcp  "rcvd dupAcks"  ETV
vector 124  SingleCell_D2D.ueD2DRx[0].tcpApp[0]  rcvdPk:vector(packetBytes)  ETV
attr interpolationmode  none
attr source  rcvdPk
attr title  "packets received, vector(packetBytes)"
vector 126  SingleCell_D2D.ueD2DRx[0].tcpApp[0]  endToEndDelay:vector  ETV
attr interpolationmode  none
attr source  messageAge(rcvdPk)
attr title  "end-to-end delay, vector"
attr unit  s
vector 125  SingleCell_D2D.ueD2DRx[0].tcpApp[0]  sentPk:vector(packetBytes)  ETV
attr interpolationmode  none
attr source  sentPk
attr title  "packets sent, vector(packetBytes)"
vector 145  SingleCell_D2D.ueD2DRx[0].tcp  "sent seq"  ETV
vector 185  SingleCell_D2D.ueD2DTx[0].tcp  "measured RTT"  ETV
vector 186  SingleCell_D2D.ueD2DTx[0].tcp  "smoothed RTT"  ETV
vector 187  SingleCell_D2D.ueD2DTx[0].tcp  RTTVAR  ETV
vector 188  SingleCell_D2D.ueD2DTx[0].tcp  RTO  ETV
vector 183  SingleCell_D2D.ueD2DTx[0].tcp  cwnd  ETV
vector 174  SingleCell_D2D.ueD2DTx[0].tcp  "rcvd dupAcks"  ETV
vector 161  SingleCell_D2D.ueD2DRx[0].tcp  "measured RTT"  ETV
vector 162  SingleCell_D2D.ueD2DRx[0].tcp  "smoothed RTT"  ETV
vector 163  SingleCell_D2D.ueD2DRx[0].tcp  RTTVAR  ETV
vector 164  SingleCell_D2D.ueD2DRx[0].tcp  RTO  ETV
vector 159  SingleCell_D2D.ueD2DRx[0].tcp  cwnd  ETV
vector 105  SingleCell_D2D.ueD2DTx[0].tcpApp[0]  rcvdPk:vector(packetBytes)  ETV
attr interpolationmode  none
attr source  rcvdPk
attr title  "packets received, vector(packetBytes)"
vector 107  SingleCell_D2D.ueD2DTx[0].tcpApp[0]  endToEndDelay:vector  ETV
attr interpolationmode  none
attr source  messageAge(rcvdPk)
attr title  "end-to-end delay, vector"
attr unit  s
159	6080	1.074	2920
159	6391	1.104	4380
159	6392	1.104	5840
159	6753	1.134	7300
159	6754	1.134	8760
159	6755	1.134	10220
159	6756	1.134	11680
159	7233	1.164	13140
159	7234	1.164	14600
159	7235	1.164	16060
159	7236	1.164	17520
159	7237	1.164	18980
159	7238	1.164	20440
159	7239	1.164	21900
159	7240	1.164	23360
159	7938	1.194	24820
159	7939	1.194	26280
159	7940	1.194	27740
159	7941	1.194	29200
159	7942	1.194	30660
159	7943	1.194	32120
159	7944	1.194	33580
159	7945	1.194	35040
159	7946	1.194	36500
159	7947	1.194	37960
159	8140	1.199	39420
159	8141	1.199	40880
159	8142	1.199	42340
159	8143	1.199	43800
159	8144	1.199	45260
159	8145	1.199	46720
159	9048	1.224	48180
159	9049	1.224	49640
159	9050	1.224	51100
159	9051	1.224	52560
159	9052	1.224	54020
159	9053	1.224	55480
159	9054	1.224	56940
159	9055	1.224	58400
159	9056	1.224	59860
159	9057	1.224	61320
159	9360	1.23	62780
159	9361	1.23	64240
159	9362	1.23	65700
159	9363	1.23	67160
159	9364	1.23	68620
159	9365	1.23	70080
159	9366	1.23	71540
159	9367	1.23	73000
159	9368	1.23	74460
159	9369	1.23	75920
159	9370	1.23	77380
159	9371	1.23	78840
159	9372	1.23	80300
159	9373	1.23	81760
159	9374	1.23	83220
159	9375	1.23	84680
159	9376	1.23	86140
159	9377	1.23	87600
159	9378	1.23	89060
159	9379	1.23	90520
159	9380	1.23	91980
159	9381	1.23	93440
159	9492	1.235	94900
159	9493	1.235	96360
159	9494	1.235	97820
159	9830	1.254	99280
159	9831	1.254	100740
159	9832	1.254	102200
159	9833	1.254	103660
159	9834	1.254	105120
159	9835	1.254	106580
159	9836	1.254	108040
159	9837	1.254	109500
159	9892	1.259	110960
159	9893	1.259	112420
159	10186	1.289	113880
161	6080	1.074	0.03
161	6391	1.104	0.03
161	6753	1.134	0.03
161	7233	1.164	0.03
161	7938	1.194	0.03
161	9048	1.224	0.03
161	9492	1.235	0.011
162	6080	1.074	0.00375
162	6391	1.104	0.00703125
162	6753	1.134	0.00990234375
162	7233	1.164	0.012414550781
162	7938	1.194	0.014612731933
162	9048	1.224	0.016536140441
162	9492	1.235	0.015844122886
163	6080	1.074	0.66
163	6391	1.104	0.58078125
163	6753	1.134	0.5110546875
163	7233	1.164	0.449685058594
163	7938	1.194	0.395672607422
163	9048	1.224	0.348136940003
163	9492	1.235	0.305311840058
164	6080	1.074	2.64375
164	6391	1.104	2.33015625
164	6753	1.134	2.05412109375
164	7233	1.164	1.811154785157
164	7938	1.194	1.597303161621
164	9048	1.224	1.409083900453
164	9492	1.235	1.237091483118
142	5487	1.014	65535
142	5782	1.044	1460000
142	6080	1.074	1460000
142	6391	1.104	1460000
142	6392	1.104	1460000
142	6753	1.134	1460000
142	6754	1.134	1460000
142	6755	1.134	1460000
142	6756	1.134	1460000
142	7233	1.164	1460000
142	7234	1.164	1460000
142	7235	1.164	1460000
142	7236	1.164	1460000
142	7237	1.164	1460000
142	7238	1.164	1460000
142	7239	1.164	1460000
142	7240	1.164	1460000
142	7938	1.194	1460000
142	7939	1.194	1460000
142	7940	1.194	1460000
142	7941	1.194	1460000
142	7942	1.194	1460000
142	7943	1.194	1460000
142	7944	1.194	1460000
142	7945	1.194	1460000
142	7946	1.194	1460000
142	7947	1.194	1460000
142	8140	1.199	1460000
142	8141	1.199	1460000
142	8142	1.199	1460000
142	8143	1.199	1460000
142	8144	1.199	1460000
142	8145	1.199	1460000
142	9048	1.224	1460000
142	9049	1.224	1460000
142	9050	1.224	1460000
142	9051	1.224	1460000
142	9052	1.224	1460000
142	9053	1.224	1460000
142	9054	1.224	1460000
142	9055	1.224	1460000
142	9056	1.224	1460000
142	9057	1.224	1460000
142	9360	1.23	1460000
142	9361	1.23	1460000
142	9362	1.23	1460000
142	9363	1.23	1460000
142	9364	1.23	1460000
142	9365	1.23	1460000
142	9366	1.23	1460000
142	9367	1.23	1460000
142	9368	1.23	1460000
142	9369	1.23	1460000
142	9370	1.23	1460000
142	9371	1.23	1460000
142	9372	1.23	1460000
142	9373	1.23	1460000
142	9374	1.23	1460000
142	9375	1.23	1460000
142	9376	1.23	1460000
142	9377	1.23	1460000
142	9378	1.23	1460000
142	9379	1.23	1460000
142	9380	1.23	1460000
142	9381	1.23	1460000
142	9492	1.235	1460000
142	9493	1.235	1460000
142	9494	1.235	1460000
142	9830	1.254	1460000
142	9831	1.254	1460000
142	9832	1.254	1460000
142	9833	1.254	1460000
142	9834	1.254	1460000
142	9835	1.254	1460000
142	9836	1.254	1460000
142	9837	1.254	1460000
142	9892	1.259	1460000
142	9893	1.259	1460000
142	10186	1.289	1460000
143	5487	1.014	65535
143	5783	1.044	1460000
143	5787	1.044	1460000
143	6080	1.074	1460000
143	6080	1.074	1460000
143	6391	1.104	1460000
143	6391	1.104	1460000
143	6392	1.104	1460000
143	6392	1.104	1460000
143	6753	1.134	1460000
143	6753	1.134	1460000
143	6754	1.134	1460000
143	6754	1.134	1460000
143	6755	1.134	1460000
143	6755	1.134	1460000
143	6756	1.134	1460000
143	6756	1.134	1460000
143	7233	1.164	1460000
143	7233	1.164	1460000
143	7234	1.164	1460000
143	7234	1.164	1460000
143	7235	1.164	1460000
143	7235	1.164	1460000
143	7236	1.164	1460000
143	7236	1.164	1460000
143	7237	1.164	1460000
143	7237	1.164	1460000
143	7238	1.164	1460000
143	7238	1.164	1460000
143	7239	1.164	1460000
143	7239	1.164	1460000
143	7240	1.164	1460000
143	7240	1.164	1460000
143	7938	1.194	1460000
143	7938	1.194	1460000
143	7939	1.194	1460000
143	7939	1.194	1460000
143	7940	1.194	1460000
143	7940	1.194	1460000
143	7941	1.194	1460000
143	7941	1.194	1460000
143	7942	1.194	1460000
143	7942	1.194	1460000
143	7943	1.194	1460000
143	7943	1.194	1460000
143	7944	1.194	1460000
143	7944	1.194	1460000
143	7945	1.194	1460000
143	7945	1.194	1460000
143	7946	1.194	1460000
143	7946	1.194	1460000
143	7947	1.194	1460000
143	7947	1.194	1460000
143	8140	1.199	1460000
143	8140	1.199	1460000
143	8141	1.199	1460000
143	8141	1.199	1460000
143	8142	1.199	1460000
143	8142	1.199	1460000
143	8143	1.199	1460000
143	8143	1.199	1460000
143	8144	1.199	1460000
143	8144	1.199	1460000
143	8145	1.199	1460000
143	8145	1.199	1460000
143	9048	1.224	1460000
143	9048	1.224	1460000
143	9049	1.224	1460000
143	9049	1.224	1460000
143	9050	1.224	1460000
143	9050	1.224	1460000
143	9051	1.224	1460000
143	9051	1.224	1460000
143	9052	1.224	1460000
143	9052	1.224	1460000
143	9053	1.224	1460000
143	9053	1.224	1460000
143	9054	1.224	1460000
143	9894	1.259	1460000
143	9898	1.259	1460000
144	5487	1.014	315536
144	5487	1.014	315536
144	5783	1.044	1710751
144	5787	1.044	1710751
144	6080	1.074	1710751
144	6080	1.074	1710751
144	6391	1.104	1710751
144	6391	1.104	1710751
144	6392	1.104	1710751
144	6392	1.104	1710751
144	6753	1.134	1710751
144	6753	1.134	1710751
144	6754	1.134	1710751
144	6754	1.134	1710751
144	6755	1.134	1710751
144	6755	1.134	1710751
144	6756	1.134	1710751
144	6756	1.134	1710751
144	7233	1.164	1710751
144	7233	1.164	1710751
144	7234	1.164	1710751
144	7234	1.164	1710751
144	7235	1.164	1710751
144	7235	1.164	1710751
144	7236	1.164	1710751
144	7236	1.164	1710751
144	7237	1.164	1710751
144	7237	1.164	1710751
144	7238	1.164	1710751
144	7238	1.164	1710751
144	7239	1.164	1710751
144	7239	1.164	1710751
144	7240	1.164	1710751
144	7240	1.164	1710751
144	7938	1.194	1710751
144	7938	1.194	1710751
144	7939	1.194	1710751
144	7939	1.194	1710751
144	7940	1.194	1710751
144	7940	1.194	1710751
144	7941	1.194	1710751
144	7941	1.194	1710751
144	7942	1.194	1710751
144	7942	1.194	1710751
144	7943	1.194	1710751
144	7943	1.194	1710751
144	7944	1.194	1710751
144	7944	1.194	1710751
144	7945	1.194	1710751
144	7945	1.194	1710751
144	7946	1.194	1710751
144	7946	1.194	1710751
144	7947	1.194	1710751
144	7947	1.194	1710751
144	8140	1.199	1710751
144	8140	1.199	1710751
144	8141	1.199	1710751
144	8141	1.199	1710751
144	8142	1.199	1710751
144	8142	1.199	1710751
144	8143	1.199	1710751
144	8143	1.199	1710751
144	8144	1.199	1710751
144	8144	1.199	1710751
144	8145	1.199	1710751
144	8145	1.199	1710751
144	9048	1.224	1710751
144	9048	1.224	1710751
144	9049	1.224	1710751
144	9049	1.224	1710751
144	9050	1.224	1710751
144	9050	1.224	1710751
144	9051	1.224	1710751
144	9051	1.224	1710751
144	9052	1.224	1710751
144	9052	1.224	1710751
144	9053	1.224	1710751
144	9053	1.224	1710751
144	9054	1.224	1710751
144	9894	1.259	1710752
144	9898	1.259	1710752
145	5787	1.044	253501
145	6080	1.074	254961
145	6080	1.074	256421
145	6391	1.104	257881
145	6391	1.104	259341
145	6392	1.104	260801
145	6392	1.104	262261
145	6753	1.134	263721
145	6753	1.134	265181
145	6754	1.134	266641
145	6754	1.134	268101
145	6755	1.134	269561
145	6755	1.134	271021
145	6756	1.134	272481
145	6756	1.134	273941
145	7233	1.164	275401
145	7233	1.164	276861
145	7234	1.164	278321
145	7234	1.164	279781
145	7235	1.164	281241
145	7235	1.164	282701
145	7236	1.164	284161
145	7236	1.164	285621
145	7237	1.164	287081
145	7237	1.164	288541
145	7238	1.164	290001
145	7238	1.164	291461
145	7239	1.164	292921
145	7239	1.164	294381
145	7240	1.164	295841
145	7240	1.164	297301
145	7938	1.194	298761
145	7938	1.194	300221
145	7939	1.194	301681
145	7939	1.194	303141
145	7940	1.194	304601
145	7940	1.194	306061
145	7941	1.194	307521
145	7941	1.194	308981
145	7942	1.194	310441
145	7942	1.194	311901
145	7943	1.194	313361
145	7943	1.194	314821
145	7944	1.194	316281
145	7944	1.194	317741
145	7945	1.194	319201
145	7945	1.194	320661
145	7946	1.194	322121
145	7946	1.194	323581
145	7947	1.194	325041
145	7947	1.194	326501
145	8140	1.199	327961
145	8140	1.199	329421
145	8141	1.199	330881
145	8141	1.199	332341
145	8142	1.199	333801
145	8142	1.199	335261
145	8143	1.199	336721
145	8143	1.199	338181
145	8144	1.199	339641
145	8144	1.199	341101
145	8145	1.199	342561
145	8145	1.199	344021
145	9048	1.224	345481
145	9048	1.224	346941
145	9049	1.224	348401
145	9049	1.224	349861
145	9050	1.224	351321
145	9050	1.224	352781
145	9051	1.224	354241
145	9051	1.224	355701
145	9052	1.224	357161
145	9052	1.224	358621
145	9053	1.224	360081
145	9053	1.224	361541
145	9054	1.224	363001
146	5487	1.014	250001
146	5783	1.044	250751
146	5787	1.044	250751
146	6080	1.074	250751
146	6080	1.074	250751
146	6391	1.104	250751
146	6391	1.104	250751
146	6392	1.104	250751
146	6392	1.104	250751
146	6753	1.134	250751
146	6753	1.134	250751
146	6754	1.134	250751
146	6754	1.134	250751
146	6755	1.134	250751
146	6755	1.134	250751
146	6756	1.134	250751
146	6756	1.134	250751
146	7233	1.164	250751
146	7233	1.164	250751
146	7234	1.164	250751
146	7234	1.164	250751
146	7235	1.164	250751
146	7235	1.164	250751
146	7236	1.164	250751
146	7236	1.164	250751
146	7237	1.164	250751
146	7237	1.164	250751
146	7238	1.164	250751
146	7238	1.164	250751
146	7239	1.164	250751
146	7239	1.164	250751
146	7240	1.164	250751
146	7240	1.164	250751
146	7938	1.194	250751
146	7938	1.194	250751
146	7939	1.194	250751
146	7939	1.194	250751
146	7940	1.194	250751
146	7940	1.194	250751
146	7941	1.194	250751
146	7941	1.194	250751
146	7942	1.194	250751
146	7942	1.194	250751
146	7943	1.194	250751
146	7943	1.194	250751
146	7944	1.194	250751
146	7944	1.194	250751
146	7945	1.194	250751
146	7945	1.194	250751
146	7946	1.194	250751
146	7946	1.194	250751
146	7947	1.194	250751
146	7947	1.194	250751
146	8140	1.199	250751
146	8140	1.199	250751
146	8141	1.199	250751
146	8141	1.199	250751
146	8142	1.199	250751
146	8142	1.199	250751
146	8143	1.199	250751
146	8143	1.199	250751
146	8144	1.199	250751
146	8144	1.199	250751
146	8145	1.199	250751
146	8145	1.199	250751
146	9048	1.224	250751
146	9048	1.224	250751
146	9049	1.224	250751
146	9049	1.224	250751
146	9050	1.224	250751
146	9050	1.224	250751
146	9051	1.224	250751
146	9051	1.224	250751
146	9052	1.224	250751
146	9052	1.224	250751
146	9053	1.224	250751
146	9053	1.224	250751
146	9054	1.224	250751
146	9894	1.259	250752
146	9898	1.259	250752
147	5487	1.014	250000
147	5782	1.044	250001
147	5783	1.044	250001
147	6080	1.074	250751
147	6391	1.104	250751
147	6392	1.104	250751
147	6753	1.134	250751
147	6754	1.134	250751
147	6755	1.134	250751
147	6756	1.134	250751
147	7233	1.164	250751
147	7234	1.164	250751
147	7235	1.164	250751
147	7236	1.164	250751
147	7237	1.164	250751
147	7238	1.164	250751
147	7239	1.164	250751
147	7240	1.164	250751
147	7938	1.194	250751
147	7939	1.194	250751
147	7940	1.194	250751
147	7941	1.194	250751
147	7942	1.194	250751
147	7943	1.194	250751
147	7944	1.194	250751
147	7945	1.194	250751
147	7946	1.194	250751
147	7947	1.194	250751
147	8140	1.199	250751
147	8141	1.199	250751
147	8142	1.199	250751
147	8143	1.199	250751
147	8144	1.199	250751
147	8145	1.199	250751
147	9048	1.224	250751
147	9049	1.224	250751
147	9050	1.224	250751
147	9051	1.224	250751
147	9052	1.224	250751
147	9053	1.224	250751
147	9054	1.224	250751
147	9055	1.224	250751
147	9056	1.224	250751
147	9057	1.224	250751
147	9360	1.23	250751
147	9361	1.23	250751
147	9362	1.23	250751
147	9363	1.23	250751
147	9364	1.23	250751
147	9365	1.23	250751
147	9366	1.23	250751
147	9367	1.23	250751
147	9368	1.23	250751
147	9369	1.23	250751
147	9370	1.23	250751
147	9371	1.23	250751
147	9372	1.23	250751
147	9373	1.23	250751
147	9374	1.23	250751
147	9375	1.23	250751
147	9376	1.23	250751
147	9377	1.23	250751
147	9378	1.23	250751
147	9379	1.23	250751
147	9380	1.23	250751
147	9381	1.23	250751
147	9492	1.235	250751
147	9493	1.235	250751
147	9494	1.235	250751
147	9830	1.254	250751
147	9831	1.254	250751
147	9832	1.254	250751
147	9833	1.254	250751
147	9834	1.254	250751
147	9835	1.254	250751
147	9836	1.254	250751
147	9837	1.254	250751
147	9892	1.259	250751
147	9893	1.259	250751
147	9894	1.259	250751
147	10186	1.289	250752
148	5487	1.014	0
148	5782	1.044	253501
148	5783	1.044	253501
148	6080	1.074	254961
148	6391	1.104	256421
148	6392	1.104	257881
148	6753	1.134	259341
148	6754	1.134	260801
148	6755	1.134	262261
148	6756	1.134	263721
148	7233	1.164	265181
148	7234	1.164	266641
148	7235	1.164	268101
148	7236	1.164	269561
148	7237	1.164	271021
148	7238	1.164	272481
148	7239	1.164	273941
148	7240	1.164	275401
148	7938	1.194	276861
148	7939	1.194	278321
148	7940	1.194	279781
148	7941	1.194	281241
148	7942	1.194	282701
148	7943	1.194	284161
148	7944	1.194	285621
148	7945	1.194	287081
148	7946	1.194	288541
148	7947	1.194	290001
148	8140	1.199	291461
148	8141	1.199	292921
148	8142	1.199	294381
148	8143	1.199	295841
148	8144	1.199	297301
148	8145	1.199	298761
148	9048	1.224	300221
148	9049	1.224	301681
148	9050	1.224	303141
148	9051	1.224	304601
148	9052	1.224	306061
148	9053	1.224	307521
148	9054	1.224	308981
148	9055	1.224	310441
148	9056	1.224	311901
148	9057	1.224	313361
148	9360	1.23	314821
148	9361	1.23	316281
148	9362	1.23	317741
148	9363	1.23	319201
148	9364	1.23	320661
148	9365	1.23	322121
148	9366	1.23	323581
148	9367	1.23	325041
148	9368	1.23	326501
148	9369	1.23	327961
148	9370	1.23	329421
148	9371	1.23	330881
148	9372	1.23	332341
148	9373	1.23	333801
148	9374	1.23	335261
148	9375	1.23	336721
148	9376	1.23	338181
148	9377	1.23	339641
148	9378	1.23	341101
148	9379	1.23	342561
148	9380	1.23	344021
148	9381	1.23	345481
148	9492	1.235	346941
148	9493	1.235	348401
148	9494	1.235	349861
148	9830	1.254	351321
148	9831	1.254	352781
148	9832	1.254	354241
148	9833	1.254	355701
148	9834	1.254	357161
148	9835	1.254	358621
148	9836	1.254	360081
148	9837	1.254	361541
148	9892	1.259	363001
148	9893	1.259	364072
148	9894	1.259	364072
148	10186	1.289	364073
149	5782	1.044	0
149	5787	1.044	1460
149	6080	1.074	0
149	6080	1.074	2920
149	6391	1.104	1460
149	6391	1.104	4380
149	6392	1.104	2920
149	6392	1.104	5840
149	6753	1.134	4380
149	6753	1.134	7300
149	6754	1.134	5840
149	6754	1.134	8760
149	6755	1.134	7300
149	6755	1.134	10220
149	6756	1.134	8760
149	6756	1.134	11680
149	7233	1.164	10220
149	7233	1.164	13140
149	7234	1.164	11680
149	7234	1.164	14600
149	7235	1.164	13140
149	7235	1.164	16060
149	7236	1.164	14600
149	7236	1.164	17520
149	7237	1.164	16060
149	7237	1.164	18980
149	7238	1.164	17520
149	7238	1.164	20440
149	7239	1.164	18980
149	7239	1.164	21900
149	7240	1.164	20440
149	7240	1.164	23360
149	7938	1.194	21900
149	7938	1.194	24820
149	7939	1.194	23360
149	7939	1.194	26280
149	7940	1.194	24820
149	7940	1.194	27740
149	7941	1.194	26280
149	7941	1.194	29200
149	7942	1.194	27740
149	7942	1.194	30660
149	7943	1.194	29200
149	7943	1.194	32120
149	7944	1.194	30660
149	7944	1.194	33580
149	7945	1.194	32120
149	7945	1.194	35040
149	7946	1.194	33580
149	7946	1.194	36500
149	7947	1.194	35040
149	7947	1.194	37960
149	8140	1.199	36500
149	8140	1.199	39420
149	8141	1.199	37960
149	8141	1.199	40880
149	8142	1.199	39420
149	8142	1.199	42340
149	8143	1.199	40880
149	8143	1.199	43800
149	8144	1.199	42340
149	8144	1.199	45260
149	8145	1.199	43800
149	8145	1.199	46720
149	9048	1.224	45260
149	9048	1.224	48180
149	9049	1.224	46720
149	9049	1.224	49640
149	9050	1.224	48180
149	9050	1.224	51100
149	9051	1.224	49640
149	9051	1.224	52560
149	9052	1.224	51100
149	9052	1.224	54020
149	9053	1.224	52560
149	9053	1.224	55480
149	9054	1.224	54020
149	9054	1.224	55091
149	9055	1.224	53631
149	9056	1.224	52171
149	9057	1.224	50711
149	9360	1.23	49251
149	9361	1.23	47791
149	9362	1.23	46331
149	9363	1.23	44871
149	9364	1.23	43411
149	9365	1.23	41951
149	9366	1.23	40491
149	9367	1.23	39031
149	9368	1.23	37571
149	9369	1.23	36111
149	9370	1.23	34651
149	9371	1.23	33191
149	9372	1.23	31731
149	9373	1.23	30271
149	9374	1.23	28811
149	9375	1.23	27351
149	9376	1.23	25891
149	9377	1.23	24431
149	9378	1.23	22971
149	9379	1.23	21511
149	9380	1.23	20051
149	9381	1.23	18591
149	9492	1.235	17131
149	9493	1.235	15671
149	9494	1.235	14211
149	9830	1.254	12751
149	9831	1.254	11291
149	9832	1.254	9831
149	9833	1.254	8371
149	9834	1.254	6911
149	9835	1.254	5451
149	9836	1.254	3991
149	9837	1.254	2531
149	9892	1.259	1071
149	9893	1.259	0
149	9898	1.259	1
149	10186	1.289	0
150	5783	1.044	0
150	6080	1.074	0
150	6391	1.104	0
150	6392	1.104	0
150	6753	1.134	0
150	6754	1.134	0
150	6755	1.134	0
150	6756	1.134	0
150	7233	1.164	0
150	7234	1.164	0
150	7235	1.164	0
150	7236	1.164	0
150	7237	1.164	0
150	7238	1.164	0
150	7239	1.164	0
150	7240	1.164	0
150	7938	1.194	0
150	7939	1.194	0
150	7940	1.194	0
150	7941	1.194	0
150	7942	1.194	0
150	7943	1.194	0
150	7944	1.194	0
150	7945	1.194	0
150	7946	1.194	0
150	7947	1.194	0
150	8140	1.199	0
150	8141	1.199	0
150	8142	1.199	0
150	8143	1.199	0
150	8144	1.199	0
150	8145	1.199	0
150	9048	1.224	0
150	9049	1.224	0
150	9050	1.224	0
150	9051	1.224	0
150	9052	1.224	0
150	9053	1.224	0
150	9054	1.224	0
150	9055	1.224	0
150	9056	1.224	0
150	9057	1.224	0
150	9360	1.23	0
150	9361	1.23	0
150	9362	1.23	0
150	9363	1.23	0
150	9364	1.23	0
150	9365	1.23	0
150	9366	1.23	0
150	9367	1.23	0
150	9368	1.23	0
150	9369	1.23	0
150	9370	1.23	0
150	9371	1.23	0
150	9372	1.23	0
150	9373	1.23	0
150	9374	1.23	0
150	9375	1.23	0
150	9376	1.23	0
150	9377	1.23	0
150	9378	1.23	0
150	9379	1.23	0
150	9380	1.23	0
150	9381	1.23	0
150	9492	1.235	0
150	9493	1.235	0
150	9494	1.235	0
150	9830	1.254	0
150	9831	1.254	0
150	9832	1.254	0
150	9833	1.254	0
150	9834	1.254	0
150	9835	1.254	0
150	9836	1.254	0
150	9837	1.254	0
150	9892	1.259	0
150	9893	1.259	0
150	9894	1.259	0
150	10186	1.289	0
157	5487	1.014	0
157	5783	1.044	0
157	5783	1.044	0
157	5787	1.044	0
157	6080	1.074	0
157	6080	1.074	0
157	6391	1.104	0
157	6391	1.104	0
157	6392	1.104	0
157	6392	1.104	0
157	6753	1.134	0
157	6753	1.134	0
157	6754	1.134	0
157	6754	1.134	0
157	6755	1.134	0
157	6755	1.134	0
157	6756	1.134	0
157	6756	1.134	0
157	7233	1.164	0
157	7233	1.164	0
157	7234	1.164	0
157	7234	1.164	0
157	7235	1.164	0
157	7235	1.164	0
157	7236	1.164	0
157	7236	1.164	0
157	7237	1.164	0
157	7237	1.164	0
157	7238	1.164	0
157	7238	1.164	0
157	7239	1.164	0
157	7239	1.164	0
157	7240	1.164	0
157	7240	1.164	0
157	7938	1.194	0
157	7938	1.194	0
157	7939	1.194	0
157	7939	1.194	0
157	7940	1.194	0
157	7940	1.194	0
157	7941	1.194	0
157	7941	1.194	0
157	7942	1.194	0
157	7942	1.194	0
157	7943	1.194	0
157	7943	1.194	0
157	7944	1.194	0
157	7944	1.194	0
157	7945	1.194	0
157	7945	1.194	0
157	7946	1.194	0
157	7946	1.194	0
157	7947	1.194	0
157	7947	1.194	0
157	8140	1.199	0
157	8140	1.199	0
157	8141	1.199	0
157	8141	1.199	0
157	8142	1.199	0
157	8142	1.199	0
157	8143	1.199	0
157	8143	1.199	0
157	8144	1.199	0
157	8144	1.199	0
157	8145	1.199	0
157	8145	1.199	0
157	9048	1.224	0
157	9048	1.224	0
157	9049	1.224	0
157	9049	1.224	0
157	9050	1.224	0
157	9050	1.224	0
157	9051	1.224	0
157	9051	1.224	0
157	9052	1.224	0
157	9052	1.224	0
157	9053	1.224	0
157	9053	1.224	0
157	9054	1.224	0
157	9894	1.259	0
157	9898	1.259	0
vector 229  SingleCell_D2D.ueD2DTx[0].tcp  tcpRcvQueueBytes  ETV
vector 216  SingleCell_D2D.ueD2DTx[0].tcp  "advertised window"  ETV
vector 215  SingleCell_D2D.ueD2DTx[0].tcp  "receive window"  ETV
vector 218  SingleCell_D2D.ueD2DTx[0].tcp  "sent ack"  ETV
vector 195  SingleCell_D2D.ueD2DRx[0].tcp  "rcvd seq"  ETV
vector 196  SingleCell_D2D.ueD2DRx[0].tcp  "rcvd ack"  ETV
vector 192  SingleCell_D2D.ueD2DRx[0].tcp  "advertised window"  ETV
vector 190  SingleCell_D2D.ueD2DRx[0].tcp  "send window"  ETV
vector 205  SingleCell_D2D.ueD2DRx[0].tcp  tcpRcvQueueBytes  ETV
vector 191  SingleCell_D2D.ueD2DRx[0].tcp  "receive window"  ETV
vector 194  SingleCell_D2D.ueD2DRx[0].tcp  "sent ack"  ETV
vector 219  SingleCell_D2D.ueD2DTx[0].tcp  "rcvd seq"  ETV
vector 220  SingleCell_D2D.ueD2DTx[0].tcp  "rcvd ack"  ETV
vector 214  SingleCell_D2D.ueD2DTx[0].tcp  "send window"  ETV
vector 217  SingleCell_D2D.ueD2DTx[0].tcp  "sent seq"  ETV
vector 221  SingleCell_D2D.ueD2DTx[0].tcp  "unacked bytes"  ETV
vector 197  SingleCell_D2D.ueD2DRx[0].tcp  "unacked bytes"  ETV
vector 198  SingleCell_D2D.ueD2DRx[0].tcp  "rcvd dupAcks"  ETV
vector 193  SingleCell_D2D.ueD2DRx[0].tcp  "sent seq"  ETV
vector 233  SingleCell_D2D.ueD2DTx[0].tcp  "measured RTT"  ETV
vector 234  SingleCell_D2D.ueD2DTx[0].tcp  "smoothed RTT"  ETV
vector 235  SingleCell_D2D.ueD2DTx[0].tcp  RTTVAR  ETV
vector 236  SingleCell_D2D.ueD2DTx[0].tcp  RTO  ETV
vector 231  SingleCell_D2D.ueD2DTx[0].tcp  cwnd  ETV
vector 222  SingleCell_D2D.ueD2DTx[0].tcp  "rcvd dupAcks"  ETV
vector 209  SingleCell_D2D.ueD2DRx[0].tcp  "measured RTT"  ETV
vector 210  SingleCell_D2D.ueD2DRx[0].tcp  "smoothed RTT"  ETV
vector 211  SingleCell_D2D.ueD2DRx[0].tcp  RTTVAR  ETV
vector 212  SingleCell_D2D.ueD2DRx[0].tcp  RTO  ETV
vector 207  SingleCell_D2D.ueD2DRx[0].tcp  cwnd  ETV
207	13176	1.786	2920
207	13487	1.816	4380
207	13488	1.816	5840
207	13849	1.846	7300
207	13850	1.846	8760
207	13851	1.846	10220
207	13852	1.846	11680
207	14256	1.876	13140
207	14257	1.876	14600
207	14623	1.893	16060
207	14624	1.893	17520
207	14625	1.893	18980
207	14626	1.893	20440
207	14627	1.893	21900
207	14628	1.893	23360
207	14775	1.898	24820
207	14776	1.898	26280
207	14777	1.898	27740
207	14778	1.898	29200
207	15454	1.923	30660
207	15455	1.923	32120
207	15456	1.923	33580
207	15457	1.923	35040
207	15458	1.923	36500
207	15459	1.923	37960
207	15460	1.923	39420
207	15461	1.923	40880
207	15462	1.923	42340
207	15463	1.923	43800
207	15666	1.928	45260
207	15667	1.928	46720
207	15668	1.928	48180
207	15669	1.928	49640
207	15670	1.928	51100
207	15671	1.928	52560
207	15672	1.928	54020
207	15673	1.928	55480
207	15674	1.928	56940
207	15675	1.928	58400
207	16651	1.953	59860
207	16652	1.953	61320
207	16653	1.953	62780
207	16654	1.953	64240
207	16655	1.953	65700
207	16656	1.953	67160
207	16657	1.953	68620
207	16658	1.953	70080
207	16659	1.953	71540
207	16660	1.953	73000
207	17117	1.959	74460
207	17118	1.959	75920
207	17119	1.959	77380
207	17120	1.959	78840
207	17121	1.959	80300
207	17122	1.959	81760
207	17123	1.959	83220
207	17124	1.959	84680
207	17125	1.959	86140
207	17126	1.959	87600
207	17127	1.959	89060
207	17128	1.959	90520
207	17129	1.959	91980
207	17130	1.959	93440
207	17131	1.959	94900
207	17132	1.959	96360
207	17133	1.959	97820
207	17134	1.959	99280
207	17135	1.959	100740
207	17136	1.959	102200
207	17137	1.959	103660
207	17138	1.959	105120
207	17714	1.965	106580
207	17715	1.965	108040
207	17716	1.965	109500
207	17717	1.965	110960
207	17718	1.965	112420
207	17719	1.965	113880
207	17720	1.965	115340
207	17721	1.965	116800
207	17722	1.965	118260
207	17723	1.965	119720
207	17724	1.965	121180
207	17725	1.965	122640
207	17726	1.965	124100
207	17975	1.97	125560
207	17976	1.97	127020
207	17977	1.97	128480
207	17978	1.97	129940
207	17979	1.97	131400
207	17980	1.97	132860
207	17981	1.97	134320
207	17982	1.97	135780
207	17983	1.97	137240
207	17984	1.97	138700
207	18262	1.981	140160
207	18263	1.981	141620
207	18264	1.981	143080
207	18265	1.981	144540
207	18514	1.986	146000
207	18515	1.986	147460
207	18516	1.986	148920
207	18517	1.986	150380
207	18950	1.995	151840
207	18951	1.995	153300
207	18952	1.995	154760
207	18953	1.995	156220
207	18954	1.995	157680
207	18955	1.995	159140
207	19296	2.001	160600
207	19297	2.001	162060
207	19298	2.001	163520
207	19299	2.001	164980
207	19300	2.001	166440
207	19301	2.001	167900
207	19302	2.001	169360
207	19303	2.001	170820
207	19304	2.001	172280
207	19305	2.001	173740
207	19306	2.001	175200
207	19307	2.001	176660
207	19308	2.001	178120
207	19309	2.001	179580
207	19310	2.001	181040
207	19311	2.001	182500
207	19312	2.001	183960
207	19313	2.001	185420
207	19314	2.001	186880
207	19315	2.001	188340
207	19641	2.007	189800
207	19642	2.007	191260
207	19643	2.007	192720
207	19644	2.007	194180
207	19645	2.007	195640
207	19646	2.007	197100
207	19647	2.007	198560
207	19648	2.007	200020
207	19649	2.007	201480
207	19650	2.007	202940
207	19651	2.007	204400
207	19652	2.007	205860
207	19653	2.007	207320
207	19654	2.007	208780
207	19655	2.007	210240
207	19656	2.007	211700
207	19657	2.007	213160
207	19658	2.007	214620
207	19835	2.013	216080
207	19836	2.013	217540
207	19837	2.013	219000
207	19838	2.013	220460
207	19839	2.013	221920
207	19840	2.013	223380
207	19841	2.013	224840
207	19842	2.013	226300
207	19843	2.013	227760
207	19844	2.013	229220
207	19845	2.013	230680
207	19846	2.013	232140
207	19934	2.019	233600
207	20195	2.039	235060
209	13176	1.786	0.03
209	13487	1.816	0.03
209	13849	1.846	0.03
209	14256	1.876	0.03
209	14775	1.898	0.022
209	15668	1.928	0.03
209	17131	1.959	0.031
209	19315	2.001	0.042
210	13176	1.786	0.00375
210	13487	1.816	0.00703125
210	13849	1.846	0.00990234375
210	14256	1.876	0.012414550781
210	14775	1.898	0.013612731933
210	15668	1.928	0.015661140441
210	17131	1.959	0.017578497886
210	19315	2.001	0.02063118565
211	13176	1.786	0.66
211	13487	1.816	0.58078125
211	13849	1.846	0.5110546875
211	14256	1.876	0.449685058594
211	14775	1.898	0.394672607422
211	15668	1.928	0.347386940003
211	17131	1.959	0.305880929948
211	19315	2.001	0.270698501469
212	13176	1.786	2.64375
212	13487	1.816	2.33015625
212	13849	1.846	2.05412109375
212	14256	1.876	1.811154785157
212	14775	1.898	1.592303161621
212	15668	1.928	1.405208900453
212	17131	1.959	1.241102217678
212	19315	2.001	1.103425191526
190	12583	1.726	65535
190	12878	1.756	1460000
190	13176	1.786	1460000
190	13487	1.816	1460000
190	13488	1.816	1460000
190	13849	1.846	1460000
190	13850	1.846	1460000
190	13851	1.846	1460000
190	13852	1.846	1460000
190	14256	1.876	1460000
190	14257	1.876	1460000
190	14623	1.893	1460000
190	14624	1.893	1460000
190	14625	1.893	1460000
190	14626	1.893	1460000
190	14627	1.893	1460000
190	14628	1.893	1460000
190	14775	1.898	1460000
190	14776	1.898	1460000
190	14777	1.898	1460000
190	14778	1.898	1460000
190	15454	1.923	1460000
190	15455	1.923	1460000
190	15456	1.923	1460000
190	15457	1.923	1460000
190	15458	1.923	1460000
190	15459	1.923	1460000
190	15460	1.923	1460000
190	15461	1.923	1460000
190	15462	1.923	1460000
190	15463	1.923	1460000
190	15666	1.928	1460000
190	15667	1.928	1460000
190	15668	1.928	1460000
190	15669	1.928	1460000
190	15670	1.928	1460000
190	15671	1.928	1460000
190	15672	1.928	1460000
190	15673	1.928	1460000
190	15674	1.928	1460000
190	15675	1.928	1460000
190	16651	1.953	1460000
190	16652	1.953	1460000
190	16653	1.953	1460000
190	16654	1.953	1460000
190	16655	1.953	1460000
190	16656	1.953	1460000
190	16657	1.953	1460000
190	16658	1.953	1460000
190	16659	1.953	1460000
190	16660	1.953	1460000
190	17117	1.959	1460000
190	17118	1.959	1460000
190	17119	1.959	1460000
190	17120	1.959	1460000
190	17121	1.959	1460000
190	17122	1.959	1460000
190	17123	1.959	1460000
190	17124	1.959	1460000
190	17125	1.959	1460000
190	17126	1.959	1460000
190	17127	1.959	1460000
190	17128	1.959	1460000
190	17129	1.959	1460000
190	17130	1.959	1460000
190	17131	1.959	1460000
190	17132	1.959	1460000
190	17133	1.959	1460000
190	17134	1.959	1460000
190	17135	1.959	1460000
190	17136	1.959	1460000
190	17137	1.959	1460000
190	17138	1.959	1460000
190	17714	1.965	1460000
190	17715	1.965	1460000
190	17716	1.965	1460000
190	17717	1.965	1460000
190	17718	1.965	1460000
190	17719	1.965	1460000
190	17720	1.965	1460000
190	17721	1.965	1460000
190	17722	1.965	1460000
190	17723	1.965	1460000
190	17724	1.965	1460000
190	17725	1.965	1460000
190	17726	1.965	1460000
190	17975	1.97	1460000
190	17976	1.97	1460000
190	17977	1.97	1460000
190	17978	1.97	1460000
190	17979	1.97	1460000
190	17980	1.97	1460000
190	17981	1.97	1460000
190	17982	1.97	1460000
190	17983	1.97	1460000
190	17984	1.97	1460000
190	18262	1.981	1460000
190	18263	1.981	1460000
190	18264	1.981	1460000
190	18265	1.981	1460000
190	18514	1.986	1460000
190	18515	1.986	1460000
190	18516	1.986	1460000
190	18517	1.986	1460000
190	18950	1.995	1460000
190	18951	1.995	1460000
190	18952	1.995	1460000
190	18953	1.995	1460000
190	18954	1.995	1460000
190	18955	1.995	1460000
190	19296	2.001	1460000
190	19297	2.001	1460000
190	19298	2.001	1460000
190	19299	2.001	1460000
190	19300	2.001	1460000
190	19301	2.001	1460000
190	19302	2.001	1460000
190	19303	2.001	1460000
190	19304	2.001	1460000
190	19305	2.001	1460000
190	19306	2.001	1460000
190	19307	2.001	1460000
190	19308	2.001	1460000
190	19309	2.001	1460000
190	19310	2.001	1460000
190	19311	2.001	1460000
190	19312	2.001	1460000
190	19313	2.001	1460000
190	19314	2.001	1460000
190	19315	2.001	1460000
190	19641	2.007	1460000
190	19642	2.007	1460000
190	19643	2.007	1460000
190	19644	2.007	1460000
190	19645	2.007	1460000
190	19646	2.007	1460000
190	19647	2.007	1460000
190	19648	2.007	1460000
190	19649	2.007	1460000
190	19650	2.007	1460000
190	19651	2.007	1460000
190	19652	2.007	1460000
190	19653	2.007	1460000
190	19654	2.007	1460000
190	19655	2.007	1460000
190	19656	2.007	1460000
190	19657	2.007	1460000
190	19658	2.007	1460000
190	19835	2.013	1460000
190	19836	2.013	1460000
190	19837	2.013	1460000
190	19838	2.013	1460000
190	19839	2.013	1460000
190	19840	2.013	1460000
190	19841	2.013	1460000
190	19842	2.013	1460000
190	19843	2.013	1460000
190	19844	2.013	1460000
190	19845	2.013	1460000
190	19846	2.013	1460000
190	19934	2.019	1460000
190	20195	2.039	1460000
191	12583	1.726	65535
191	12879	1.756	1460000
191	12883	1.756	1460000
191	13176	1.786	1460000
191	13176	1.786	1460000
191	13487	1.816	1460000
191	13487	1.816	1460000
191	13488	1.816	1460000
191	13488	1.816	1460000
191	13849	1.846	1460000
191	13849	1.846	1460000
191	13850	1.846	1460000
191	13850	1.846	1460000
191	13851	1.846	1460000
191	13851	1.846	1460000
191	13852	1.846	1460000
191	13852	1.846	1460000
191	14256	1.876	1460000
191	14256	1.876	1460000
191	14257	1.876	1460000
191	14257	1.876	1460000
191	14623	1.893	1460000
191	14623	1.893	1460000
191	14624	1.893	1460000
191	14624	1.893	1460000
191	14625	1.893	1460000
191	14625	1.893	1460000
191	14626	1.893	1460000
191	14626	1.893	1460000
191	14627	1.893	1460000
191	14627	1.893	1460000
191	14628	1.893	1460000
191	14628	1.893	1460000
191	14775	1.898	1460000
191	14775	1.898	1460000
191	14776	1.898	1460000
191	14776	1.898	1460000
191	14777	1.898	1460000
191	14777	1.898	1460000
191	14778	1.898	1460000
191	14778	1.898	1460000
191	15454	1.923	1460000
191	15454	1.923	1460000
191	15455	1.923	1460000
191	15455	1.923	1460000
191	15456	1.923	1460000
191	15456	1.923	1460000
191	15457	1.923	1460000
191	15457	1.923	1460000
191	15458	1.923	1460000
191	15458	1.923	1460000
191	15459	1.923	1460000
191	15459	1.923	1460000
191	15460	1.923	1460000
191	15460	1.923	1460000
191	15461	1.923	1460000
191	15461	1.923	1460000
191	15462	1.923	1460000
191	15462	1.923	1460000
191	15463	1.923	1460000
191	15463	1.923	1460000
191	15666	1.928	1460000
191	15666	1.928	1460000
191	15667	1.928	1460000
191	15667	1.928	1460000
191	15668	1.928	1460000
191	15668	1.928	1460000
191	15669	1.928	1460000
191	15669	1.928	1460000
191	15670	1.928	1460000
191	15670	1.928	1460000
191	15671	1.928	1460000
191	15671	1.928	1460000
191	15672	1.928	1460000
191	15672	1.928	1460000
191	15673	1.928	1460000
191	15673	1.928	1460000
191	15674	1.928	1460000
191	15674	1.928	1460000
191	15675	1.928	1460000
191	15675	1.928	1460000
191	16651	1.953	1460000
191	16651	1.953	1460000
191	16652	1.953	1460000
191	16652	1.953	1460000
191	16653	1.953	1460000
191	16653	1.953	1460000
191	16654	1.953	1460000
191	16654	1.953	1460000
191	16655	1.953	1460000
191	16655	1.953	1460000
191	16656	1.953	1460000
191	16656	1.953	1460000
191	16657	1.953	1460000
191	16657	1.953	1460000
191	16658	1.953	1460000
191	16658	1.953	1460000
191	16659	1.953	1460000
191	16659	1.953	1460000
191	16660	1.953	1460000
191	16660	1.953	1460000
191	17117	1.959	1460000
191	17117	1.959	1460000
191	17118	1.959	1460000
191	17118	1.959	1460000
191	17119	1.959	1460000
191	17119	1.959	1460000
191	17120	1.959	1460000
191	17120	1.959	1460000
191	17121	1.959	1460000
191	17121	1.959	1460000
191	17122	1.959	1460000
191	17122	1.959	1460000
191	17123	1.959	1460000
191	17123	1.959	1460000
191	17124	1.959	1460000
191	17124	1.959	1460000
191	17125	1.959	1460000
191	17125	1.959	1460000
191	17126	1.959	1460000
191	17126	1.959	1460000
191	17127	1.959	1460000
191	17127	1.959	1460000
191	17128	1.959	1460000
191	17128	1.959	1460000
191	17129	1.959	1460000
191	17129	1.959	1460000
191	17130	1.959	1460000
191	17130	1.959	1460000
191	17131	1.959	1460000
191	17131	1.959	1460000
191	17132	1.959	1460000
191	17132	1.959	1460000
191	17133	1.959	1460000
191	17133	1.959	1460000
191	17134	1.959	1460000
191	17134	1.959	1460000
191	17135	1.959	1460000
191	17135	1.959	1460000
191	17136	1.959	1460000
191	17136	1.959	1460000
191	17137	1.959	1460000
191	17137	1.959	1460000
191	17138	1.959	1460000
191	17138	1.959	1460000
191	17714	1.965	1460000
191	17714	1.965	1460000
191	17715	1.965	1460000
191	17715	1.965	1460000
191	17716	1.965	1460000
191	17716	1.965	1460000
191	17717	1.965	1460000
191	17717	1.965	1460000
191	17718	1.965	1460000
191	17718	1.965	1460000
191	17719	1.965	1460000
191	17719	1.965	1460000
191	17720	1.965	1460000
191	17720	1.965	1460000
191	17721	1.965	1460000
191	17721	1.965	1460000
191	19935	2.019	1460000
191	19939	2.019	1460000
192	12583	1.726	493481
192	12583	1.726	493481
192	12879	1.756	1888696
192	12883	1.756	1888696
192	13176	1.786	1888696
192	13176	1.786	1888696
192	13487	1.816	1888696
192	13487	1.816	1888696
192	13488	1.816	1888696
192	13488	1.816	1888696
192	13849	1.846	1888696
192	13849	1.846	1888696
192	13850	1.846	1888696
192	13850	1.846	1888696
192	13851	1.846	1888696
192	13851	1.846	1888696
192	13852	1.846	1888696
192	13852	1.846	1888696
192	14256	1.876	1888696
192	14256	1.876	1888696
192	14257	1.876	1888696
192	14257	1.876	1888696
192	14623	1.893	1888696
192	14623	1.893	1888696
192	14624	1.893	1888696
192	14624	1.893	1888696
192	14625	1.893	1888696
192	14625	1.893	1888696
192	14626	1.893	1888696
192	14626	1.893	1888696
192	14627	1.893	1888696
192	14627	1.893	1888696
192	14628	1.893	1888696
192	14628	1.893	1888696
192	14775	1.898	1888696
192	14775	1.898	1888696
192	14776	1.898	1888696
192	14776	1.898	1888696
192	14777	1.898	1888696
192	14777	1.898	1888696
192	14778	1.898	1888696
192	14778	1.898	1888696
192	15454	1.923	1888696
192	15454	1.923	1888696
192	15455	1.923	1888696
192	15455	1.923	1888696
192	15456	1.923	1888696
192	15456	1.923	1888696
192	15457	1.923	1888696
192	15457	1.923	1888696
192	15458	1.923	1888696
192	15458	1.923	1888696
192	15459	1.923	1888696
192	15459	1.923	1888696
192	15460	1.923	1888696
192	15460	1.923	1888696
192	15461	1.923	1888696
192	15461	1.923	1888696
192	15462	1.923	1888696
192	15462	1.923	1888696
192	15463	1.923	1888696
192	15463	1.923	1888696
192	15666	1.928	1888696
192	15666	1.928	1888696
192	15667	1.928	1888696
192	15667	1.928	1888696
192	15668	1.928	1888696
192	15668	1.928	1888696
192	15669	1.928	1888696
192	15669	1.928	1888696
192	15670	1.928	1888696
192	15670	1.928	1888696
192	15671	1.928	1888696
192	15671	1.928	1888696
192	15672	1.928	1888696
192	15672	1.928	1888696
192	15673	1.928	1888696
192	15673	1.928	1888696
192	15674	1.928	1888696
192	15674	1.928	1888696
192	15675	1.928	1888696
192	15675	1.928	1888696
192	16651	1.953	1888696
192	16651	1.953	1888696
192	16652	1.953	1888696
192	16652	1.953	1888696
192	16653	1.953	1888696
192	16653	1.953	1888696
192	16654	1.953	1888696
192	16654	1.953	1888696
192	16655	1.953	1888696
192	16655	1.953	1888696
192	16656	1.953	1888696
192	16656	1.953	1888696
192	16657	1.953	1888696
192	16657	1.953	1888696
192	16658	1.953	1888696
192	16658	1.953	1888696
192	16659	1.953	1888696
192	16659	1.953	1888696
192	16660	1.953	1888696
192	16660	1.953	1888696
192	17117	1.959	1888696
192	17117	1.959	1888696
192	17118	1.959	1888696
192	17118	1.959	1888696
192	17119	1.959	1888696
192	17119	1.959	1888696
192	17120	1.959	1888696
192	17120	1.959	1888696
192	17121	1.959	1888696
192	17121	1.959	1888696
192	17122	1.959	1888696
192	17122	1.959	1888696
192	17123	1.959	1888696
192	17123	1.959	1888696
192	17124	1.959	1888696
192	17124	1.959	1888696
192	17125	1.959	1888696
192	17125	1.959	1888696
192	17126	1.959	1888696
192	17126	1.959	1888696
192	17127	1.959	1888696
192	17127	1.959	1888696
192	17128	1.959	1888696
192	17128	1.959	1888696
192	17129	1.959	1888696
192	17129	1.959	1888696
192	17130	1.959	1888696
192	17130	1.959	1888696
192	17131	1.959	1888696
192	17131	1.959	1888696
192	17132	1.959	1888696
192	17132	1.959	1888696
192	17133	1.959	1888696
192	17133	1.959	1888696
192	17134	1.959	1888696
192	17134	1.959	1888696
192	17135	1.959	1888696
192	17135	1.959	1888696
192	17136	1.959	1888696
192	17136	1.959	1888696
192	17137	1.959	1888696
192	17137	1.959	1888696
192	17138	1.959	1888696
192	17138	1.959	1888696
192	17714	1.965	1888696
192	17714	1.965	1888696
192	17715	1.965	1888696
192	17715	1.965	1888696
192	17716	1.965	1888696
192	17716	1.965	1888696
192	17717	1.965	1888696
192	17717	1.965	1888696
192	17718	1.965	1888696
192	17718	1.965	1888696
192	17719	1.965	1888696
192	17719	1.965	1888696
192	17720	1.965	1888696
192	17720	1.965	1888696
192	17721	1.965	1888696
192	17721	1.965	1888696
192	19935	2.019	1888697
192	19939	2.019	1888697
193	12883	1.756	431501
193	13176	1.786	432961
193	13176	1.786	434421
193	13487	1.816	435881
193	13487	1.816	437341
193	13488	1.816	438801
193	13488	1.816	440261
193	13849	1.846	441721
193	13849	1.846	443181
193	13850	1.846	444641
193	13850	1.846	446101
193	13851	1.846	447561
193	13851	1.846	449021
193	13852	1.846	450481
193	13852	1.846	451941
193	14256	1.876	453401
193	14256	1.876	454861
193	14257	1.876	456321
193	14257	1.876	457781
193	14623	1.893	459241
193	14623	1.893	460701
193	14624	1.893	462161
193	14624	1.893	463621
193	14625	1.893	465081
193	14625	1.893	466541
193	14626	1.893	468001
193	14626	1.893	469461
193	14627	1.893	470921
193	14627	1.893	472381
193	14628	1.893	473841
193	14628	1.893	475301
193	14775	1.898	476761
193	14775	1.898	478221
193	14776	1.898	479681
193	14776	1.898	481141
193	14777	1.898	482601
193	14777	1.898	484061
193	14778	1.898	485521
193	14778	1.898	486981
193	15454	1.923	488441
193	15454	1.923	489901
193	15455	1.923	491361
193	15455	1.923	492821
193	15456	1.923	494281
193	15456	1.923	495741
193	15457	1.923	497201
193	15457	1.923	498661
193	15458	1.923	500121
193	15458	1.923	501581
193	15459	1.923	503041
193	15459	1.923	504501
193	15460	1.923	505961
193	15460	1.923	507421
193	15461	1.923	508881
193	15461	1.923	510341
193	15462	1.923	511801
193	15462	1.923	513261
193	15463	1.923	514721
193	15463	1.923	516181
193	15666	1.928	517641
193	15666	1.928	519101
193	15667	1.928	520561
193	15667	1.928	522021
193	15668	1.928	523481
193	15668	1.928	524941
193	15669	1.928	526401
193	15669	1.928	527861
193	15670	1.928	529321
193	15670	1.928	530781
193	15671	1.928	532241
193	15671	1.928	533701
193	15672	1.928	535161
193	15672	1.928	536621
193	15673	1.928	538081
193	15673	1.928	539541
193	15674	1.928	541001
193	15674	1.928	542461
193	15675	1.928	543921
193	15675	1.928	545381
193	16651	1.953	546841
193	16651	1.953	548301
193	16652	1.953	549761
193	16652	1.953	551221
193	16653	1.953	552681
193	16653	1.953	554141
193	16654	1.953	555601
193	16654	1.953	557061
193	16655	1.953	558521
193	16655	1.953	559981
193	16656	1.953	561441
193	16656	1.953	562901
193	16657	1.953	564361
193	16657	1.953	565821
193	16658	1.953	567281
193	16658	1.953	568741
193	16659	1.953	570201
193	16659	1.953	571661
193	16660	1.953	573121
193	16660	1.953	574581
193	17117	1.959	576041
193	17117	1.959	577501
193	17118	1.959	578961
193	17118	1.959	580421
193	17119	1.959	581881
193	17119	1.959	583341
193	17120	1.959	584801
193	17120	1.959	586261
193	17121	1.959	587721
193	17121	1.959	589181
193	17122	1.959	590641
193	17122	1.959	592101
193	17123	1.959	593561
193	17123	1.959	595021
193	17124	1.959	596481
193	17124	1.959	597941
193	17125	1.959	599401
193	17125	1.959	600861
193	17126	1.959	602321
193	17126	1.959	603781
193	17127	1.959	605241
193	17127	1.959	606701
193	17128	1.959	608161
193	17128	1.959	609621
193	17129	1.959	611081
193	17129	1.959	612541
193	17130	1.959	614001
193	17130	1.959	615461
193	17131	1.959	616921
193	17131	1.959	618381
193	17132	1.959	619841
193	17132	1.959	621301
193	17133	1.959	622761
193	17133	1.959	624221
193	17134	1.959	625681
193	17134	1.959	627141
193	17135	1.959	628601
193	17135	1.959	630061
193	17136	1.959	631521
193	17136	1.959	632981
193	17137	1.959	634441
193	17137	1.959	635901
193	17138	1.959	637361
193	17138	1.959	638821
193	17714	1.965	640281
193	17714	1.965	641741
193	17715	1.965	643201
193	17715	1.965	644661
193	17716	1.965	646121
193	17716	1.965	647581
193	17717	1.965	649041
193	17717	1.965	650501
193	17718	1.965	651961
193	17718	1.965	653421
193	17719	1.965	654881
193	17719	1.965	656341
193	17720	1.965	657801
193	17720	1.965	659261
193	17721	1.965	660721
193	17721	1.965	662181
194	12583	1.726	427946
194	12879	1.756	428696
194	12883	1.756	428696
194	13176	1.786	428696
194	13176	1.786	428696
194	13487	1.816	428696
194	13487	1.816	428696
194	13488	1.816	428696
194	13488	1.816	428696
194	13849	1.846	428696
194	13849	1.846	428696
194	13850	1.846	428696
194	13850	1.846	428696
194	13851	1.846	428696
194	13851	1.846	428696
194	13852	1.846	428696
194	13852	1.846	428696
194	14256	1.876	428696
194	14256	1.876	428696
194	14257	1.876	428696
194	14257	1.876	428696
194	14623	1.893	428696
194	14623	1.893	428696
194	14624	1.893	428696
194	14624	1.893	428696
194	14625	1.893	428696
194	14625	1.893	428696
194	14626	1.893	428696
194	14626	1.893	428696
194	14627	1.893	428696
194	14627	1.893	428696
194	14628	1.893	428696
194	14628	1.893	428696
194	14775	1.898	428696
194	14775	1.898	428696
194	14776	1.898	428696
194	14776	1.898	428696
194	14777	1.898	428696
194	14777	1.898	428696
194	14778	1.898	428696
194	14778	1.898	428696
194	15454	1.923	428696
194	15454	1.923	428696
194	15455	1.923	428696
194	15455	1.923	428696
194	15456	1.923	428696
194	15456	1.923	428696
194	15457	1.923	428696
194	15457	1.923	428696
194	15458	1.923	428696
194	15458	1.923	428696
194	15459	1.923	428696
194	15459	1.923	428696
194	15460	1.923	428696
194	15460	1.923	428696
194	15461	1.923	428696
194	15461	1.923	428696
194	15462	1.923	428696
194	15462	1.923	428696
194	15463	1.923	428696
194	15463	1.923	428696
194	15666	1.928	428696
194	15666	1.928	428696
194	15667	1.928	428696
194	15667	1.928	428696
194	15668	1.928	428696
194	15668	1.928	428696
194	15669	1.928	428696
194	15669	1.928	428696
194	15670	1.928	428696
194	15670	1.928	428696
194	15671	1.928	428696
194	15671	1.928	428696
194	15672	1.928	428696
194	15672	1.928	428696
194	15673	1.928	428696
194	15673	1.928	428696
194	15674	1.928	428696
194	15674	1.928	428696
194	15675	1.928	428696
194	15675	1.928	428696
194	16651	1.953	428696
194	16651	1.953	428696
194	16652	1.953	428696
194	16652	1.953	428696
194	16653	1.953	428696
194	16653	1.953	428696
194	16654	1.953	428696
194	16654	1.953	428696
194	16655	1.953	428696
194	16655	1.953	428696
194	16656	1.953	428696
194	16656	1.953	428696
194	16657	1.953	428696
194	16657	1.953	428696
194	16658	1.953	428696
194	16658	1.953	428696
194	16659	1.953	428696
194	16659	1.953	428696
194	16660	1.953	428696
194	16660	1.953	428696
194	17117	1.959	428696
194	17117	1.959	428696
194	17118	1.959	428696
194	17118	1.959	428696
194	17119	1.959	428696
194	17119	1.959	428696
194	17120	1.959	428696
194	17120	1.959	428696
194	17121	1.959	428696
194	17121	1.959	428696
194	17122	1.959	428696
194	17122	1.959	428696
194	17123	1.959	428696
194	17123	1.959	428696
194	17124	1.959	428696
194	17124	1.959	428696
194	17125	1.959	428696
194	17125	1.959	428696
194	17126	1.959	428696
194	17126	1.959	428696
194	17127	1.959	428696
194	17127	1.959	428696
194	17128	1.959	428696
194	17128	1.959	428696
194	17129	1.959	428696
194	17129	1.959	428696
194	17130	1.959	428696
194	17130	1.959	428696
194	17131	1.959	428696
194	17131	1.959	428696
194	17132	1.959	428696
194	17132	1.959	428696
194	17133	1.959	428696
194	17133	1.959	428696
194	17134	1.959	428696
194	17134	1.959	428696
194	17135	1.959	428696
194	17135	1.959	428696
194	17136	1.959	428696
194	17136	1.959	428696
194	17137	1.959	428696
194	17137	1.959	428696
194	17138	1.959	428696
194	17138	1.959	428696
194	17714	1.965	428696
194	17714	1.965	428696
194	17715	1.965	428696
194	17715	1.965	428696
194	17716	1.965	428696
194	17716	1.965	428696
194	17717	1.965	428696
194	17717	1.965	428696
194	17718	1.965	428696
194	17718	1.965	428696
194	17719	1.965	428696
194	17719	1.965	428696
194	17720	1.965	428696
194	17720	1.965	428696
194	17721	1.965	428696
194	17721	1.965	428696
194	19935	2.019	428697
194	19939	2.019	428697
195	12583	1.726	427945
195	12878	1.756	427946
195	12879	1.756	427946
195	13176	1.786	428696
195	13487	1.816	428696
195	13488	1.816	428696
195	13849	1.846	428696
195	13850	1.846	428696
195	13851	1.846	428696
195	13852	1.846	428696
195	14256	1.876	428696
195	14257	1.876	428696
195	14623	1.893	428696
195	14624	1.893	428696
195	14625	1.893	428696
195	14626	1.893	428696
195	14627	1.893	428696
195	14628	1.893	428696
195	14775	1.898	428696
195	14776	1.898	428696
195	14777	1.898	428696
195	14778	1.898	428696
195	15454	1.923	428696
195	15455	1.923	428696
195	15456	1.923	428696
195	15457	1.923	428696
195	15458	1.923	428696
195	15459	1.923	428696
195	15460	1.923	428696
195	15461	1.923	428696
195	15462	1.923	428696
195	15463	1.923	428696
195	15666	1.928	428696
195	15667	1.928	428696
195	15668	1.928	428696
195	15669	1.928	428696
195	15670	1.928	428696
195	15671	1.928	428696
195	15672	1.928	428696
195	15673	1.928	428696
195	15674	1.928	428696
195	15675	1.928	428696
195	16651	1.953	428696
195	16652	1.953	428696
195	16653	1.953	428696
195	16654	1.953	428696
195	16655	1.953	428696
195	16656	1.953	428696
195	16657	1.953	428696
195	16658	1.953	428696
195	16659	1.953	428696
195	16660	1.953	428696
195	17117	1.959	428696
195	17118	1.959	428696
195	17119	1.959	428696
195	17120	1.959	428696
195	17121	1.959	428696
195	17122	1.959	428696
195	17123	1.959	428696
195	17124	1.959	428696
195	17125	1.959	428696
195	17126	1.959	428696
195	17127	1.959	428696
195	17128	1.959	428696
195	17129	1.959	428696
195	17130	1.959	428696
195	17131	1.959	428696
195	17132	1.959	428696
195	17133	1.959	428696
195	17134	1.959	428696
195	17135	1.959	428696
195	17136	1.959	428696
195	17137	1.959	428696
195	17138	1.959	428696
195	17714	1.965	428696
195	17715	1.965	428696
195	17716	1.965	428696
195	17717	1.965	428696
195	17718	1.965	428696
195	17719	1.965	428696
195	17720	1.965	428696
195	17721	1.965	428696
195	17722	1.965	428696
195	17723	1.965	428696
195	17724	1.965	428696
195	17725	1.965	428696
195	17726	1.965	428696
195	17975	1.97	428696
195	17976	1.97	428696
195	17977	1.97	428696
195	17978	1.97	428696
195	17979	1.97	428696
195	17980	1.97	428696
195	17981	1.97	428696
195	17982	1.97	428696
195	17983	1.97	428696
195	17984	1.97	428696
195	18262	1.981	428696
195	18263	1.981	428696
195	18264	1.981	428696
195	18265	1.981	428696
195	18514	1.986	428696
195	18515	1.986	428696
195	18516	1.986	428696
195	18517	1.986	428696
195	18950	1.995	428696
195	18951	1.995	428696
195	18952	1.995	428696
195	18953	1.995	428696
195	18954	1.995	428696
195	18955	1.995	428696
195	19296	2.001	428696
195	19297	2.001	428696
195	19298	2.001	428696
195	19299	2.001	428696
195	19300	2.001	428696
195	19301	2.001	428696
195	19302	2.001	428696
195	19303	2.001	428696
195	19304	2.001	428696
195	19305	2.001	428696
195	19306	2.001	428696
195	19307	2.001	428696
195	19308	2.001	428696
195	19309	2.001	428696
195	19310	2.001	428696
195	19311	2.001	428696
195	19312	2.001	428696
195	19313	2.001	428696
195	19314	2.001	428696
195	19315	2.001	428696
195	19641	2.007	428696
195	19642	2.007	428696
195	19643	2.007	428696
195	19644	2.007	428696
195	19645	2.007	428696
195	19646	2.007	428696
195	19647	2.007	428696
195	19648	2.007	428696
195	19649	2.007	428696
195	19650	2.007	428696
195	19651	2.007	428696
195	19652	2.007	428696
195	19653	2.007	428696
195	19654	2.007	428696
195	19655	2.007	428696
195	19656	2.007	428696
195	19657	2.007	428696
195	19658	2.007	428696
195	19835	2.013	428696
195	19836	2.013	428696
195	19837	2.013	428696
195	19838	2.013	428696
195	19839	2.013	428696
195	19840	2.013	428696
195	19841	2.013	428696
195	19842	2.013	428696
195	19843	2.013	428696
195	19844	2.013	428696
195	19845	2.013	428696
195	19846	2.013	428696
195	19934	2.019	428696
195	19935	2.019	428696
195	20195	2.039	428697
196	12583	1.726	0
196	12878	1.756	431501
196	12879	1.756	431501
196	13176	1.786	432961
196	13487	1.816	434421
196	13488	1.816	435881
196	13849	1.846	437341
196	13850	1.846	438801
196	13851	1.846	440261
196	13852	1.846	441721
196	14256	1.876	443181
196	14257	1.876	444641
196	14623	1.893	446101
196	14624	1.893	447561
196	14625	1.893	449021
196	14626	1.893	450481
196	14627	1.893	451941
196	14628	1.893	453401
196	14775	1.898	454861
196	14776	1.898	456321
196	14777	1.898	457781
196	14778	1.898	459241
196	15454	1.923	460701
196	15455	1.923	462161
196	15456	1.923	463621
196	15457	1.923	465081
196	15458	1.923	466541
196	15459	1.923	468001
196	15460	1.923	469461
196	15461	1.923	470921
196	15462	1.923	472381
196	15463	1.923	473841
196	15666	1.928	475301
196	15667	1.928	476761
196	15668	1.928	478221
196	15669	1.928	479681
196	15670	1.928	481141
196	15671	1.928	482601
196	15672	1.928	484061
196	15673	1.928	485521
196	15674	1.928	486981
196	15675	1.928	488441
196	16651	1.953	489901
196	16652	1.953	491361
196	16653	1.953	492821
196	16654	1.953	494281
196	16655	1.953	495741
196	16656	1.953	497201
196	16657	1.953	498661
196	16658	1.953	500121
196	16659	1.953	501581
196	16660	1.953	503041
196	17117	1.959	504501
196	17118	1.959	505961
196	17119	1.959	507421
196	17120	1.959	508881
196	17121	1.959	510341
196	17122	1.959	511801
196	17123	1.959	513261
196	17124	1.959	514721
196	17125	1.959	516181
196	17126	1.959	517641
196	17127	1.959	519101
196	17128	1.959	520561
196	17129	1.959	522021
196	17130	1.959	523481
196	17131	1.959	524941
196	17132	1.959	526401
196	17133	1.959	527861
196	17134	1.959	529321
196	17135	1.959	530781
196	17136	1.959	532241
196	17137	1.959	533701
196	17138	1.959	535161
196	17714	1.965	536621
196	17715	1.965	538081
196	17716	1.965	539541
196	17717	1.965	541001
196	17718	1.965	542461
196	17719	1.965	543921
196	17720	1.965	545381
196	17721	1.965	546841
196	17722	1.965	548301
196	17723	1.965	549761
196	17724	1.965	551221
196	17725	1.965	552681
196	17726	1.965	554141
196	17975	1.97	555601
196	17976	1.97	557061
196	17977	1.97	558521
196	17978	1.97	559981
196	17979	1.97	561441
196	17980	1.97	562901
196	17981	1.97	564361
196	17982	1.97	565821
196	17983	1.97	567281
196	17984	1.97	568741
196	18262	1.981	570201
196	18263	1.981	571661
196	18264	1.981	573121
196	18265	1.981	574581
196	18514	1.986	576041
196	18515	1.986	577501
196	18516	1.986	578961
196	18517	1.986	580421
196	18950	1.995	581881
196	18951	1.995	583341
196	18952	1.995	584801
196	18953	1.995	586261
196	18954	1.995	587721
196	18955	1.995	589181
196	19296	2.001	590641
196	19297	2.001	592101
196	19298	2.001	593561
196	19299	2.001	595021
196	19300	2.001	596481
196	19301	2.001	597941
196	19302	2.001	599401
196	19303	2.001	600861
196	19304	2.001	602321
196	19305	2.001	603781
196	19306	2.001	605241
196	19307	2.001	606701
196	19308	2.001	608161
196	19309	2.001	609621
196	19310	2.001	611081
196	19311	2.001	612541
196	19312	2.001	614001
196	19313	2.001	615461
196	19314	2.001	616921
196	19315	2.001	618381
196	19641	2.007	619841
196	19642	2.007	621301
196	19643	2.007	622761
196	19644	2.007	624221
196	19645	2.007	625681
196	19646	2.007	627141
196	19647	2.007	628601
196	19648	2.007	630061
196	19649	2.007	631521
196	19650	2.007	632981
196	19651	2.007	634441
196	19652	2.007	635901
196	19653	2.007	637361
196	19654	2.007	638821
196	19655	2.007	640281
196	19656	2.007	641741
196	19657	2.007	643201
196	19658	2.007	644661
196	19835	2.013	646121
196	19836	2.013	647581
196	19837	2.013	649041
196	19838	2.013	650501
196	19839	2.013	651961
196	19840	2.013	653421
196	19841	2.013	654881
196	19842	2.013	656341
196	19843	2.013	657801
196	19844	2.013	659261
196	19845	2.013	660721
196	19846	2.013	662181
196	19934	2.019	662802
196	19935	2.019	662802
196	20195	2.039	662803
197	12878	1.756	0
197	12883	1.756	1460
197	13176	1.786	0
197	13176	1.786	2920
197	13487	1.816	1460
197	13487	1.816	4380
197	13488	1.816	2920
197	13488	1.816	5840
197	13849	1.846	4380
197	13849	1.846	7300
197	13850	1.846	5840
197	13850	1.846	8760
197	13851	1.846	7300
197	13851	1.846	10220
197	13852	1.846	8760
197	13852	1.846	11680
197	14256	1.876	10220
197	14256	1.876	13140
197	14257	1.876	11680
197	14257	1.876	14600
197	14623	1.893	13140
197	14623	1.893	16060
197	14624	1.893	14600
197	14624	1.893	17520
197	14625	1.893	16060
197	14625	1.893	18980
197	14626	1.893	17520
197	14626	1.893	20440
197	14627	1.893	18980
197	14627	1.893	21900
197	14628	1.893	20440
197	14628	1.893	23360
197	14775	1.898	21900
197	14775	1.898	24820
197	14776	1.898	23360
197	14776	1.898	26280
197	14777	1.898	24820
197	14777	1.898	27740
197	14778	1.898	26280
197	14778	1.898	29200
197	15454	1.923	27740
197	15454	1.923	30660
197	15455	1.923	29200
197	15455	1.923	32120
197	15456	1.923	30660
197	15456	1.923	33580
197	15457	1.923	32120
197	15457	1.923	35040
197	15458	1.923	33580
197	15458	1.923	36500
197	15459	1.923	35040
197	15459	1.923	37960
197	15460	1.923	36500
197	15460	1.923	39420
197	15461	1.923	37960
197	15461	1.923	40880
197	15462	1.923	39420
197	15462	1.923	42340
197	15463	1.923	40880
197	15463	1.923	43800
197	15666	1.928	42340
197	15666	1.928	45260
197	15667	1.928	43800
197	15667	1.928	46720
197	15668	1.928	45260
197	15668	1.928	48180
197	15669	1.928	46720
197	15669	1.928	49640
197	15670	1.928	48180
197	15670	1.928	51100
197	15671	1.928	49640
197	15671	1.928	52560
197	15672	1.928	51100
197	15672	1.928	54020
197	15673	1.928	52560
197	15673	1.928	55480
197	15674	1.928	54020
197	15674	1.928	56940
197	15675	1.928	55480
197	15675	1.928	58400
197	16651	1.953	56940
197	16651	1.953	59860
197	16652	1.953	58400
197	16652	1.953	61320
197	16653	1.953	59860
197	16653	1.953	62780
197	16654	1.953	61320
197	16654	1.953	64240
197	16655	1.953	62780
197	16655	1.953	65700
197	16656	1.953	64240
197	16656	1.953	67160
197	16657	1.953	65700
197	16657	1.953	68620
197	16658	1.953	67160
197	16658	1.953	70080
197	16659	1.953	68620
197	16659	1.953	71540
197	16660	1.953	70080
197	16660	1.953	73000
197	17117	1.959	71540
197	17117	1.959	74460
197	17118	1.959	73000
197	17118	1.959	75920
197	17119	1.959	74460
197	17119	1.959	77380
197	17120	1.959	75920
197	17120	1.959	78840
197	17121	1.959	77380
197	17121	1.959	80300
197	17122	1.959	78840
197	17122	1.959	81760
197	17123	1.959	80300
197	17123	1.959	83220
197	17124	1.959	81760
197	17124	1.959	84680
197	17125	1.959	83220
197	17125	1.959	86140
197	17126	1.959	84680
197	17126	1.959	87600
197	17127	1.959	86140
197	17127	1.959	89060
197	17128	1.959	87600
197	17128	1.959	90520
197	17129	1.959	89060
197	17129	1.959	91980
197	17130	1.959	90520
197	17130	1.959	93440
197	17131	1.959	91980
197	17131	1.959	94900
197	17132	1.959	93440
197	17132	1.959	96360
197	17133	1.959	94900
197	17133	1.959	97820
197	17134	1.959	96360
197	17134	1.959	99280
197	17135	1.959	97820
197	17135	1.959	100740
197	17136	1.959	99280
197	17136	1.959	102200
197	17137	1.959	100740
197	17137	1.959	103660
197	17138	1.959	102200
197	17138	1.959	105120
197	17714	1.965	103660
197	17714	1.965	106580
197	17715	1.965	105120
197	17715	1.965	108040
197	17716	1.965	106580
197	17716	1.965	109500
197	17717	1.965	108040
197	17717	1.965	110960
197	17718	1.965	109500
197	17718	1.965	112420
197	17719	1.965	110960
197	17719	1.965	113880
197	17720	1.965	112420
197	17720	1.965	115340
197	17721	1.965	113880
197	17721	1.965	115961
197	17722	1.965	114501
197	17723	1.965	113041
197	17724	1.965	111581
197	17725	1.965	110121
197	17726	1.965	108661
197	17975	1.97	107201
197	17976	1.97	105741
197	17977	1.97	104281
197	17978	1.97	102821
197	17979	1.97	101361
197	17980	1.97	99901
197	17981	1.97	98441
197	17982	1.97	96981
197	17983	1.97	95521
197	17984	1.97	94061
197	18262	1.981	92601
197	18263	1.981	91141
197	18264	1.981	89681
197	18265	1.981	88221
197	18514	1.986	86761
197	18515	1.986	85301
197	18516	1.986	83841
197	18517	1.986	82381
197	18950	1.995	80921
197	18951	1.995	79461
197	18952	1.995	78001
197	18953	1.995	76541
197	18954	1.995	75081
197	18955	1.995	73621
197	19296	2.001	72161
197	19297	2.001	70701
197	19298	2.001	69241
197	19299	2.001	67781
197	19300	2.001	66321
197	19301	2.001	64861
197	19302	2.001	63401
197	19303	2.001	61941
197	19304	2.001	60481
197	19305	2.001	59021
197	19306	2.001	57561
197	19307	2.001	56101
197	19308	2.001	54641
197	19309	2.001	53181
197	19310	2.001	51721
197	19311	2.001	50261
197	19312	2.001	48801
197	19313	2.001	47341
197	19314	2.001	45881
197	19315	2.001	44421
197	19641	2.007	42961
197	19642	2.007	41501
197	19643	2.007	40041
197	19644	2.007	38581
197	19645	2.007	37121
197	19646	2.007	35661
197	19647	2.007	34201
197	19648	2.007	32741
197	19649	2.007	31281
197	19650	2.007	29821
197	19651	2.007	28361
197	19652	2.007	26901
197	19653	2.007	25441
197	19654	2.007	23981
197	19655	2.007	22521
197	19656	2.007	21061
197	19657	2.007	19601
197	19658	2.007	18141
197	19835	2.013	16681
197	19836	2.013	15221
197	19837	2.013	13761
197	19838	2.013	12301
197	19839	2.013	10841
197	19840	2.013	9381
197	19841	2.013	7921
197	19842	2.013	6461
197	19843	2.013	5001
197	19844	2.013	3541
197	19845	2.013	2081
197	19846	2.013	621
197	19934	2.019	0
197	19939	2.019	1
197	20195	2.039	0
198	12879	1.756	0
198	13176	1.786	0
198	13487	1.816	0
198	13488	1.816	0
198	13849	1.846	0
198	13850	1.846	0
198	13851	1.846	0
198	13852	1.846	0
198	14256	1.876	0
198	14257	1.876	0
198	14623	1.893	0
198	14624	1.893	0
198	14625	1.893	0
198	14626	1.893	0
198	14627	1.893	0
198	14628	1.893	0
198	14775	1.898	0
198	14776	1.898	0
198	14777	1.898	0
198	14778	1.898	0
198	15454	1.923	0
198	15455	1.923	0
198	15456	1.923	0
198	15457	1.923	0
198	15458	1.923	0
198	15459	1.923	0
198	15460	1.923	0
198	15461	1.923	0
198	15462	1.923	0
198	15463	1.923	0
198	15666	1.928	0
198	15667	1.928	0
198	15668	1.928	0
198	15669	1.928	0
198	15670	1.928	0
198	15671	1.928	0
198	15672	1.928	0
198	15673	1.928	0
198	15674	1.928	0
198	15675	1.928	0
198	16651	1.953	0
198	16652	1.953	0
198	16653	1.953	0
198	16654	1.953	0
198	16655	1.953	0
198	16656	1.953	0
198	16657	1.953	0
198	16658	1.953	0
198	16659	1.953	0
198	16660	1.953	0
198	17117	1.959	0
198	17118	1.959	0
198	17119	1.959	0
198	17120	1.959	0
198	17121	1.959	0
198	17122	1.959	0
198	17123	1.959	0
198	17124	1.959	0
198	17125	1.959	0
198	17126	1.959	0
198	17127	1.959	0
198	17128	1.959	0
198	17129	1.959	0
198	17130	1.959	0
198	17131	1.959	0
198	17132	1.959	0
198	17133	1.959	0
198	17134	1.959	0
198	17135	1.959	0
198	17136	1.959	0
198	17137	1.959	0
198	17138	1.959	0
198	17714	1.965	0
198	17715	1.965	0
198	17716	1.965	0
198	17717	1.965	0
198	17718	1.965	0
198	17719	1.965	0
198	17720	1.965	0
198	17721	1.965	0
198	17722	1.965	0
198	17723	1.965	0
198	17724	1.965	0
198	17725	1.965	0
198	17726	1.965	0
198	17975	1.97	0
198	17976	1.97	0
198	17977	1.97	0
198	17978	1.97	0
198	17979	1.97	0
198	17980	1.97	0
198	17981	1.97	0
198	17982	1.97	0
198	17983	1.97	0
198	17984	1.97	0
198	18262	1.981	0
198	18263	1.981	0
198	18264	1.981	0
198	18265	1.981	0
198	18514	1.986	0
198	18515	1.986	0
198	18516	1.986	0
198	18517	1.986	0
198	18950	1.995	0
198	18951	1.995	0
198	18952	1.995	0
198	18953	1.995	0
198	18954	1.995	0
198	18955	1.995	0
198	19296	2.001	0
198	19297	2.001	0
198	19298	2.001	0
198	19299	2.001	0
198	19300	2.001	0
198	19301	2.001	0
198	19302	2.001	0
198	19303	2.001	0
198	19304	2.001	0
198	19305	2.001	0
198	19306	2.001	0
198	19307	2.001	0
198	19308	2.001	0
198	19309	2.001	0
198	19310	2.001	0
198	19311	2.001	0
198	19312	2.001	0
198	19313	2.001	0
198	19314	2.001	0
198	19315	2.001	0
198	19641	2.007	0
198	19642	2.007	0
198	19643	2.007	0
198	19644	2.007	0
198	19645	2.007	0
198	19646	2.007	0
198	19647	2.007	0
198	19648	2.007	0
198	19649	2.007	0
198	19650	2.007	0
198	19651	2.007	0
198	19652	2.007	0
198	19653	2.007	0
198	19654	2.007	0
198	19655	2.007	0
198	19656	2.007	0
198	19657	2.007	0
198	19658	2.007	0
198	19835	2.013	0
198	19836	2.013	0
198	19837	2.013	0
198	19838	2.013	0
198	19839	2.013	0
198	19840	2.013	0
198	19841	2.013	0
198	19842	2.013	0
198	19843	2.013	0
198	19844	2.013	0
198	19845	2.013	0
198	19846	2.013	0
198	19934	2.019	0
198	19935	2.019	0
198	20195	2.039	0
205	12583	1.726	0
205	12879	1.756	0
205	12879	1.756	0
205	12883	1.756	0
205	13176	1.786	0
205	13176	1.786	0
205	13487	1.816	0
205	13487	1.816	0
205	13488	1.816	0
205	13488	1.816	0
205	13849	1.846	0
205	13849	1.846	0
205	13850	1.846	0
205	13850	1.846	0
205	13851	1.846	0
205	13851	1.846	0
205	13852	1.846	0
205	13852	1.846	0
205	14256	1.876	0
205	14256	1.876	0
205	14257	1.876	0
205	14257	1.876	0
205	14623	1.893	0
205	14623	1.893	0
205	14624	1.893	0
205	14624	1.893	0
205	14625	1.893	0
205	14625	1.893	0
205	14626	1.893	0
205	14626	1.893	0
205	14627	1.893	0
205	14627	1.893	0
205	14628	1.893	0
205	14628	1.893	0
205	14775	1.898	0
205	14775	1.898	0
205	14776	1.898	0
205	14776	1.898	0
205	14777	1.898	0
205	14777	1.898	0
205	14778	1.898	0
205	14778	1.898	0
205	15454	1.923	0
205	15454	1.923	0
205	15455	1.923	0
205	15455	1.923	0
205	15456	1.923	0
205	15456	1.923	0
205	15457	1.923	0
205	15457	1.923	0
205	15458	1.923	0
205	15458	1.923	0
205	15459	1.923	0
205	15459	1.923	0
205	15460	1.923	0
205	15460	1.923	0
205	15461	1.923	0
205	15461	1.923	0
205	15462	1.923	0
205	15462	1.923	0
205	15463	1.923	0
205	15463	1.923	0
205	15666	1.928	0
205	15666	1.928	0
205	15667	1.928	0
205	15667	1.928	0
205	15668	1.928	0
205	15668	1.928	0
205	15669	1.928	0
205	15669	1.928	0
205	15670	1.928	0
205	15670	1.928	0
205	15671	1.928	0
205	15671	1.928	0
205	15672	1.928	0
205	15672	1.928	0
205	15673	1.928	0
205	15673	1.928	0
205	15674	1.928	0
205	15674	1.928	0
205	15675	1.928	0
205	15675	1.928	0
205	16651	1.953	0
205	16651	1.953	0
205	16652	1.953	0
205	16652	1.953	0
205	16653	1.953	0
205	16653	1.953	0
205	16654	1.953	0
205	16654	1.953	0
205	16655	1.953	0
205	16655	1.953	0
205	16656	1.953	0
205	16656	1.953	0
205	16657	1.953	0
205	16657	1.953	0
205	16658	1.953	0
205	16658	1.953	0
205	16659	1.953	0
205	16659	1.953	0
205	16660	1.953	0
205	16660	1.953	0
205	17117	1.959	0
205	17117	1.959	0
205	17118	1.959	0
205	17118	1.959	0
205	17119	1.959	0
205	17119	1.959	0
205	17120	1.959	0
205	17120	1.959	0
205	17121	1.959	0
205	17121	1.959	0
205	17122	1.959	0
205	17122	1.959	0
205	17123	1.959	0
205	17123	1.959	0
205	17124	1.959	0
205	17124	1.959	0
205	17125	1.959	0
205	17125	1.959	0
205	17126	1.959	0
205	17126	1.959	0
205	17127	1.959	0
205	17127	1.959	0
205	17128	1.959	0
205	17128	1.959	0
205	17129	1.959	0
205	17129	1.959	0
205	17130	1.959	0
205	17130	1.959	0
205	17131	1.959	0
205	17131	1.959	0
205	17132	1.959	0
205	17132	1.959	0
205	17133	1.959	0
205	17133	1.959	0
205	17134	1.959	0
205	17134	1.959	0
205	17135	1.959	0
205	17135	1.959	0
205	17136	1.959	0
205	17136	1.959	0
205	17137	1.959	0
205	17137	1.959	0
205	17138	1.959	0
205	17138	1.959	0
205	17714	1.965	0
205	17714	1.965	0
205	17715	1.965	0
205	17715	1.965	0
205	17716	1.965	0
205	17716	1.965	0
205	17717	1.965	0
205	17717	1.965	0
205	17718	1.965	0
205	17718	1.965	0
205	17719	1.965	0
205	17719	1.965	0
205	17720	1.965	0
205	17720	1.965	0
205	17721	1.965	0
205	17721	1.965	0
205	19935	2.019	0
205	19939	2.019	0
vector 277  SingleCell_D2D.ueD2DTx[0].tcp  tcpRcvQueueBytes  ETV
vector 264  SingleCell_D2D.ueD2DTx[0].tcp  "advertised window"  ETV
vector 263  SingleCell_D2D.ueD2DTx[0].tcp  "receive window"  ETV
vector 266  SingleCell_D2D.ueD2DTx[0].tcp  "sent ack"  ETV
vector 243  SingleCell_D2D.ueD2DRx[0].tcp  "rcvd seq"  ETV
vector 244  SingleCell_D2D.ueD2DRx[0].tcp  "rcvd ack"  ETV
vector 240  SingleCell_D2D.ueD2DRx[0].tcp  "advertised window"  ETV
vector 238  SingleCell_D2D.ueD2DRx[0].tcp  "send window"  ETV
vector 253  SingleCell_D2D.ueD2DRx[0].tcp  tcpRcvQueueBytes  ETV
vector 239  SingleCell_D2D.ueD2DRx[0].tcp  "receive window"  ETV
vector 242  SingleCell_D2D.ueD2DRx[0].tcp  "sent ack"  ETV
vector 267  SingleCell_D2D.ueD2DTx[0].tcp  "rcvd seq"  ETV
vector 268  SingleCell_D2D.ueD2DTx[0].tcp  "rcvd ack"  ETV
vector 262  SingleCell_D2D.ueD2DTx[0].tcp  "send window"  ETV
vector 265  SingleCell_D2D.ueD2DTx[0].tcp  "sent seq"  ETV
vector 269  SingleCell_D2D.ueD2DTx[0].tcp  "unacked bytes"  ETV
vector 245  SingleCell_D2D.ueD2DRx[0].tcp  "unacked bytes"  ETV
vector 246  SingleCell_D2D.ueD2DRx[0].tcp  "rcvd dupAcks"  ETV
vector 241  SingleCell_D2D.ueD2DRx[0].tcp  "sent seq"  ETV
vector 281  SingleCell_D2D.ueD2DTx[0].tcp  "measured RTT"  ETV
vector 282  SingleCell_D2D.ueD2DTx[0].tcp  "smoothed RTT"  ETV
vector 283  SingleCell_D2D.ueD2DTx[0].tcp  RTTVAR  ETV
vector 284  SingleCell_D2D.ueD2DTx[0].tcp  RTO  ETV
vector 279  SingleCell_D2D.ueD2DTx[0].tcp  cwnd  ETV
vector 270  SingleCell_D2D.ueD2DTx[0].tcp  "rcvd dupAcks"  ETV
vector 257  SingleCell_D2D.ueD2DRx[0].tcp  "measured RTT"  ETV
vector 258  SingleCell_D2D.ueD2DRx[0].tcp  "smoothed RTT"  ETV
vector 259  SingleCell_D2D.ueD2DRx[0].tcp  RTTVAR  ETV
vector 260  SingleCell_D2D.ueD2DRx[0].tcp  RTO  ETV
vector 255  SingleCell_D2D.ueD2DRx[0].tcp  cwnd  ETV
255	25019	2.88	2920
255	25330	2.91	4380
255	25331	2.91	5840
255	25692	2.94	7300
255	25693	2.94	8760
255	25694	2.94	10220
255	25695	2.94	11680
255	26172	2.97	13140
255	26173	2.97	14600
255	26174	2.97	16060
255	26175	2.97	17520
255	26176	2.97	18980
255	26177	2.97	20440
255	26178	2.97	21900
255	26179	2.97	23360
255	26877	3	24820
255	26878	3	26280
255	26879	3	27740
255	26880	3	29200
255	26881	3	30660
255	26882	3	32120
255	26883	3	33580
255	26884	3	35040
255	26885	3	36500
255	26886	3	37960
255	27079	3.005	39420
255	27080	3.005	40880
255	27081	3.005	42340
255	27082	3.005	43800
255	27083	3.005	45260
255	27084	3.005	46720
255	27925	3.03	48180
255	27926	3.03	49640
255	28168	3.036	51100
255	28169	3.036	52560
255	28170	3.036	54020
255	28171	3.036	55480
255	28172	3.036	56940
255	28173	3.036	58400
255	28423	3.041	59860
255	28424	3.041	61320
255	28425	3.041	62780
255	28426	3.041	64240
255	28427	3.041	65700
255	28428	3.041	67160
255	28429	3.041	68620
255	28430	3.041	70080
255	28431	3.041	71540
255	28432	3.041	73000
255	28433	3.041	74460
255	28434	3.041	75920
255	28435	3.041	77380
255	28436	3.041	78840
255	28437	3.041	80300
255	28438	3.041	81760
255	28439	3.041	83220
255	28440	3.041	84680
255	28441	3.041	86140
255	28442	3.041	87600
255	28443	3.041	89060
255	28444	3.041	90520
255	28445	3.041	91980
255	28446	3.041	93440
255	28759	3.042	94900
255	28760	3.042	96360
255	28761	3.042	97820
255	28762	3.042	99280
255	29184	3.056	100740
255	29420	3.062	102200
255	29421	3.062	103660
255	29849	3.069	105120
255	29850	3.069	106580
255	29851	3.069	108040
255	29852	3.069	109500
255	29853	3.069	110960
255	29854	3.069	112420
255	29855	3.069	113880
255	29856	3.069	115340
255	29857	3.069	116800
255	29858	3.069	118260
255	30206	3.073	119720
255	30207	3.073	121180
255	30208	3.073	122640
255	30209	3.073	124100
255	30210	3.073	125560
255	30211	3.073	127020
255	30212	3.073	128480
255	30213	3.073	129940
255	30214	3.073	131400
255	30215	3.073	132860
255	30216	3.073	134320
255	30217	3.073	135780
255	30218	3.073	137240
255	30219	3.073	138700
255	30220	3.073	140160
255	30645	3.078	141620
255	30646	3.078	143080
255	30647	3.078	144540
255	30648	3.078	146000
255	30649	3.078	147460
255	31325	3.091	148920
255	31326	3.091	150380
255	31327	3.091	151840
255	31328	3.091	153300
255	31329	3.091	154760
255	31330	3.091	156220
255	31331	3.091	157680
255	31332	3.091	159140
255	31333	3.091	160600
255	31334	3.091	162060
255	31335	3.091	163520
255	31336	3.091	164980
255	31337	3.091	166440
255	31338	3.091	167900
255	31339	3.091	169360
255	31340	3.091	170820
255	31341	3.091	172280
255	31342	3.091	173740
255	31343	3.091	175200
255	31344	3.091	176660
255	31345	3.091	178120
255	31346	3.091	179580
255	31347	3.091	181040
255	31348	3.091	182500
255	31349	3.091	183960
255	31350	3.091	185420
255	31687	3.097	186880
255	31688	3.097	188340
255	31689	3.097	189800
255	31690	3.097	191260
255	31691	3.097	192720
255	31692	3.097	194180
255	31693	3.097	195640
255	31694	3.097	197100
255	31695	3.097	198560
255	31696	3.097	200020
255	31697	3.097	201480
255	31698	3.097	202940
255	31699	3.097	204400
255	31700	3.097	205860
255	31701	3.097	207320
255	31702	3.097	208780
255	31703	3.097	210240
255	31704	3.097	211700
255	31705	3.097	213160
255	31706	3.097	214620
255	31707	3.097	216080
255	31708	3.097	217540
255	32022	3.103	219000
[...]
330	42221	4.824	0.00375
331	42221	4.824	0.66
332	42221	4.824	2.64375
358	57477	7.069	65535
358	57785	7.099	1460000
358	62807	7.334	1460000
359	57202	7.039087104992	65535
359	57477	7.069	1460000
359	57481	7.069	1460000
359	57786	7.099	1460000
359	58084	7.129	1460000
359	58085	7.129	1460000
359	58415	7.159	1460000
359	58416	7.159	1460000
359	58447	7.16	1460000
359	58448	7.16	1460000
359	58823	7.189	1460000
359	58824	7.189	1460000
359	58858	7.19	1460000
359	58859	7.19	1460000
359	58895	7.191	1460000
359	58896	7.191	1460000
359	58931	7.192	1460000
359	58932	7.192	1460000
359	59358	7.219	1460000
359	59359	7.219	1460000
359	59399	7.22	1460000
359	59400	7.22	1460000
359	59443	7.221	1460000
359	59444	7.221	1460000
359	59487	7.222	1460000
359	59488	7.222	1460000
359	59529	7.223	1460000
359	59530	7.223	1460000
359	59568	7.224	1460000
359	59569	7.224	1460000
359	59606	7.225	1460000
359	59607	7.225	1460000
359	59641	7.226	1460000
359	59642	7.226	1460000
359	60199	7.249	1460000
359	60200	7.249	1460000
359	60240	7.25	1460000
359	60241	7.25	1460000
359	60284	7.251	1460000
359	60285	7.251	1460000
359	60328	7.252	1460000
359	60329	7.252	1460000
359	60370	7.253	1460000
359	60371	7.253	1460000
359	60414	7.254	1460000
359	60415	7.254	1460000
359	60459	7.255	1460000
359	60460	7.255	1460000
359	60501	7.256	1460000
359	60502	7.256	1460000
359	60549	7.257	1460000
359	60550	7.257	1460000
359	60593	7.258	1460000
359	60594	7.258	1460000
359	60635	7.259	1460000
359	60636	7.259	1460000
359	60687	7.26	1460000
359	60688	7.26	1460000
359	60734	7.261	1460000
359	60735	7.261	1460000
359	60771	7.262	1460000
359	60772	7.262	1460000
359	60813	7.263	1460000
359	60814	7.263	1460000
359	60849	7.264	1460000
359	60850	7.264	1460000
359	61132	7.269	1460000
359	61163	7.27	1460000
359	61164	7.27	1460000
359	61403	7.271	1460000
359	61404	7.271	1460000
359	61450	7.272	1460000
359	61451	7.272	1460000
359	61488	7.273	1460000
359	61489	7.273	1460000
359	61523	7.274	1460000
359	61524	7.274	1460000
359	61772	7.286	1460000
359	61773	7.286	1460000
359	61817	7.287	1460000
359	61818	7.287	1460000
359	61857	7.288	1460000
359	61858	7.288	1460000
359	61901	7.289	1460000
359	61902	7.289	1460000
359	62173	7.298	1460000
359	62174	7.298	1460000
359	62175	7.298	1460000
359	62176	7.298	1460000
359	62177	7.298	1460000
359	62178	7.298	1460000
359	62179	7.298	1460000
359	62180	7.298	1460000
359	62181	7.298	1460000
359	62182	7.298	1460000
359	62183	7.298	1460000
359	62184	7.298	1460000
359	62185	7.298	1460000
359	62186	7.298	1460000
359	62187	7.298	1460000
359	62188	7.298	1460000
359	62189	7.298	1460000
359	62315	7.299	1460000
359	62318	7.299	1460000
359	62808	7.334	1460000
360	57202	7.039087104992	65535
360	57477	7.069	1829036
360	57477	7.069	3223501
360	57481	7.069	3223501
360	57786	7.099	3224961
360	58084	7.129	3226421
360	58085	7.129	3227881
360	58415	7.159	3229341
360	58416	7.159	3230801
360	58447	7.16	3232261
360	58448	7.16	3233721
360	58823	7.189	3235181
360	58824	7.189	3236641
360	58858	7.19	3238101
360	58859	7.19	3239561
360	58895	7.191	3241021
360	58896	7.191	3242481
360	58931	7.192	3243941
360	58932	7.192	3245401
360	59358	7.219	3246861
360	59359	7.219	3248321
360	59399	7.22	3249781
360	59400	7.22	3251241
360	59443	7.221	3252701
360	59444	7.221	3254161
360	59487	7.222	3255621
360	59488	7.222	3257081
360	59529	7.223	3258541
360	59530	7.223	3260001
360	59568	7.224	3261461
360	59569	7.224	3262921
360	59606	7.225	3264381
360	59607	7.225	3265841
360	59641	7.226	3267301
360	59642	7.226	3268761
360	60199	7.249	3270221
360	60200	7.249	3271681
360	60240	7.25	3273141
360	60241	7.25	3274601
360	60284	7.251	3276061
360	60285	7.251	3277521
360	60328	7.252	3278981
360	60329	7.252	3280441
360	60370	7.253	3281901
360	60371	7.253	3283361
360	60414	7.254	3284821
360	60415	7.254	3286281
360	60459	7.255	3287741
360	60460	7.255	3289201
360	60501	7.256	3290661
360	60502	7.256	3292121
360	60549	7.257	3293581
360	60550	7.257	3295041
360	60593	7.258	3296501
360	60594	7.258	3297961
360	60635	7.259	3299421
360	60636	7.259	3300881
360	60687	7.26	3302341
360	60688	7.26	3303801
360	60734	7.261	3305261
360	60735	7.261	3306721
360	60771	7.262	3308181
360	60772	7.262	3309641
360	60813	7.263	3311101
360	60814	7.263	3312561
360	60849	7.264	3314021
360	60850	7.264	3315481
360	61132	7.269	3316941
360	61163	7.27	3318401
360	61164	7.27	3319861
360	61403	7.271	3321321
360	61404	7.271	3322781
360	61450	7.272	3324241
360	61451	7.272	3325701
360	61488	7.273	3327161
360	61489	7.273	3328621
360	61523	7.274	3330081
360	61524	7.274	3331541
360	61772	7.286	3333001
360	61773	7.286	3334461
360	61817	7.287	3335921
360	61818	7.287	3337381
360	61857	7.288	3338841
360	61858	7.288	3340301
360	61901	7.289	3341761
360	61902	7.289	3343221
360	62173	7.298	3344681
360	62174	7.298	3346141
360	62175	7.298	3347601
360	62176	7.298	3349061
360	62177	7.298	3350521
360	62178	7.298	3351981
360	62179	7.298	3353441
360	62180	7.298	3354901
360	62181	7.298	3356361
360	62182	7.298	3357821
360	62183	7.298	3359281
360	62184	7.298	3360741
360	62185	7.298	3362201
360	62186	7.298	3363661
360	62187	7.298	3365121
360	62188	7.298	3366581
360	62189	7.298	3368041
360	62315	7.299	3368578
360	62318	7.299	3368578
360	62808	7.334	3368579
361	57481	7.069	1759772
362	57202	7.039087104992	0
362	57477	7.069	1763501
362	57481	7.069	1763501
362	57786	7.099	1764961
362	58084	7.129	1766421
362	58085	7.129	1767881
362	58415	7.159	1769341
362	58416	7.159	1770801
362	58447	7.16	1772261
362	58448	7.16	1773721
362	58823	7.189	1775181
362	58824	7.189	1776641
362	58858	7.19	1778101
362	58859	7.19	1779561
362	58895	7.191	1781021
362	58896	7.191	1782481
362	58931	7.192	1783941
362	58932	7.192	1785401
362	59358	7.219	1786861
362	59359	7.219	1788321
362	59399	7.22	1789781
362	59400	7.22	1791241
362	59443	7.221	1792701
362	59444	7.221	1794161
362	59487	7.222	1795621
362	59488	7.222	1797081
362	59529	7.223	1798541
362	59530	7.223	1800001
362	59568	7.224	1801461
362	59569	7.224	1802921
362	59606	7.225	1804381
362	59607	7.225	1805841
362	59641	7.226	1807301
362	59642	7.226	1808761
362	60199	7.249	1810221
362	60200	7.249	1811681
362	60240	7.25	1813141
362	60241	7.25	1814601
362	60284	7.251	1816061
362	60285	7.251	1817521
362	60328	7.252	1818981
362	60329	7.252	1820441
362	60370	7.253	1821901
362	60371	7.253	1823361
362	60414	7.254	1824821
362	60415	7.254	1826281
362	60459	7.255	1827741
362	60460	7.255	1829201
362	60501	7.256	1830661
362	60502	7.256	1832121
362	60549	7.257	1833581
362	60550	7.257	1835041
362	60593	7.258	1836501
362	60594	7.258	1837961
362	60635	7.259	1839421
362	60636	7.259	1840881
362	60687	7.26	1842341
362	60688	7.26	1843801
362	60734	7.261	1845261
362	60735	7.261	1846721
362	60771	7.262	1848181
362	60772	7.262	1849641
362	60813	7.263	1851101
362	60814	7.263	1852561
362	60849	7.264	1854021
362	60850	7.264	1855481
362	61132	7.269	1856941
362	61163	7.27	1858401
362	61164	7.27	1859861
362	61403	7.271	1861321
362	61404	7.271	1862781
362	61450	7.272	1864241
362	61451	7.272	1865701
362	61488	7.273	1867161
362	61489	7.273	1868621
362	61523	7.274	1870081
362	61524	7.274	1871541
362	61772	7.286	1873001
362	61773	7.286	1874461
362	61817	7.287	1875921
362	61818	7.287	1877381
362	61857	7.288	1878841
362	61858	7.288	1880301
362	61901	7.289	1881761
362	61902	7.289	1883221
362	62173	7.298	1884681
362	62174	7.298	1886141
362	62175	7.298	1887601
362	62176	7.298	1889061
362	62177	7.298	1890521
362	62178	7.298	1891981
362	62179	7.298	1893441
362	62180	7.298	1894901
362	62181	7.298	1896361
362	62182	7.298	1897821
362	62183	7.298	1899281
362	62184	7.298	1900741
362	62185	7.298	1902201
362	62186	7.298	1903661
362	62187	7.298	1905121
362	62188	7.298	1906581
362	62189	7.298	1908041
362	62315	7.299	1908578
362	62318	7.299	1908578
362	62808	7.334	1908579
363	57477	7.069	1763500
363	57785	7.099	1763501
363	57786	7.099	1763501
363	58084	7.129	1764961
363	58085	7.129	1766421
363	58415	7.159	1767881
363	58416	7.159	1769341
363	58447	7.16	1770801
363	58448	7.16	1772261
363	58823	7.189	1773721
363	58824	7.189	1775181
363	58858	7.19	1776641
363	58859	7.19	1778101
363	58895	7.191	1779561
363	58896	7.191	1781021
363	58931	7.192	1782481
363	58932	7.192	1783941
363	59358	7.219	1785401
363	59359	7.219	1786861
363	59399	7.22	1788321
363	59400	7.22	1789781
363	59443	7.221	1791241
363	59444	7.221	1792701
363	59487	7.222	1794161
363	59488	7.222	1795621
363	59529	7.223	1797081
363	59530	7.223	1798541
363	59568	7.224	1800001
363	59569	7.224	1801461
363	59606	7.225	1802921
363	59607	7.225	1804381
363	59641	7.226	1805841
363	59642	7.226	1807301
363	60199	7.249	1808761
363	60200	7.249	1810221
363	60240	7.25	1811681
363	60241	7.25	1813141
363	60284	7.251	1814601
363	60285	7.251	1816061
363	60328	7.252	1817521
363	60329	7.252	1818981
363	60370	7.253	1820441
363	60371	7.253	1821901
363	60414	7.254	1823361
363	60415	7.254	1824821
363	60459	7.255	1826281
363	60460	7.255	1827741
363	60501	7.256	1829201
363	60502	7.256	1830661
363	60549	7.257	1832121
363	60550	7.257	1833581
363	60593	7.258	1835041
363	60594	7.258	1836501
363	60635	7.259	1837961
363	60636	7.259	1839421
363	60687	7.26	1840881
363	60688	7.26	1842341
363	60734	7.261	1843801
363	60735	7.261	1845261
363	60771	7.262	1846721
363	60772	7.262	1848181
363	60813	7.263	1849641
363	60814	7.263	1851101
363	60849	7.264	1852561
363	60850	7.264	1854021
363	61132	7.269	1855481
363	61163	7.27	1856941
363	61164	7.27	1858401
363	61403	7.271	1859861
363	61404	7.271	1861321
363	61450	7.272	1862781
363	61451	7.272	1864241
363	61488	7.273	1865701
363	61489	7.273	1867161
363	61523	7.274	1868621
363	61524	7.274	1870081
363	61772	7.286	1871541
363	61773	7.286	1873001
363	61817	7.287	1874461
363	61818	7.287	1875921
363	61857	7.288	1877381
363	61858	7.288	1878841
363	61901	7.289	1880301
363	61902	7.289	1881761
363	62173	7.298	1883221
363	62174	7.298	1884681
363	62175	7.298	1886141
363	62176	7.298	1887601
363	62177	7.298	1889061
363	62178	7.298	1890521
363	62179	7.298	1891981
363	62180	7.298	1893441
363	62181	7.298	1894901
363	62182	7.298	1896361
363	62183	7.298	1897821
363	62184	7.298	1899281
363	62185	7.298	1900741
363	62186	7.298	1902201
363	62187	7.298	1903661
363	62188	7.298	1905121
363	62189	7.298	1906581
363	62315	7.299	1908041
363	62807	7.334	1908578
363	62808	7.334	1908578
364	57477	7.069	1759772
364	57785	7.099	1760522
364	57786	7.099	1760522
364	58084	7.129	1760522
364	58085	7.129	1760522
364	58415	7.159	1760522
364	58416	7.159	1760522
364	58447	7.16	1760522
364	58448	7.16	1760522
364	58823	7.189	1760522
364	58824	7.189	1760522
364	58858	7.19	1760522
364	58859	7.19	1760522
364	58895	7.191	1760522
364	58896	7.191	1760522
364	58931	7.192	1760522
364	58932	7.192	1760522
364	59358	7.219	1760522
364	59359	7.219	1760522
364	59399	7.22	1760522
364	59400	7.22	1760522
364	59443	7.221	1760522
364	59444	7.221	1760522
364	59487	7.222	1760522
364	59488	7.222	1760522
364	59529	7.223	1760522
364	59530	7.223	1760522
364	59568	7.224	1760522
364	59569	7.224	1760522
364	59606	7.225	1760522
364	59607	7.225	1760522
364	59641	7.226	1760522
364	59642	7.226	1760522
364	60199	7.249	1760522
364	60200	7.249	1760522
364	60240	7.25	1760522
364	60241	7.25	1760522
364	60284	7.251	1760522
364	60285	7.251	1760522
364	60328	7.252	1760522
364	60329	7.252	1760522
364	60370	7.253	1760522
364	60371	7.253	1760522
364	60414	7.254	1760522
364	60415	7.254	1760522
364	60459	7.255	1760522
364	60460	7.255	1760522
364	60501	7.256	1760522
364	60502	7.256	1760522
364	60549	7.257	1760522
364	60550	7.257	1760522
364	60593	7.258	1760522
364	60594	7.258	1760522
364	60635	7.259	1760522
364	60636	7.259	1760522
364	60687	7.26	1760522
364	60688	7.26	1760522
364	60734	7.261	1760522
364	60735	7.261	1760522
364	60771	7.262	1760522
364	60772	7.262	1760522
364	60813	7.263	1760522
364	60814	7.263	1760522
364	60849	7.264	1760522
364	60850	7.264	1760522
364	61132	7.269	1760522
364	61163	7.27	1760522
364	61164	7.27	1760522
364	61403	7.271	1760522
364	61404	7.271	1760522
364	61450	7.272	1760522
364	61451	7.272	1760522
364	61488	7.273	1760522
364	61489	7.273	1760522
364	61523	7.274	1760522
364	61524	7.274	1760522
364	61772	7.286	1760522
364	61773	7.286	1760522
364	61817	7.287	1760522
364	61818	7.287	1760522
364	61857	7.288	1760522
364	61858	7.288	1760522
364	61901	7.289	1760522
364	61902	7.289	1760522
364	62173	7.298	1760522
364	62174	7.298	1760522
364	62175	7.298	1760522
364	62176	7.298	1760522
364	62177	7.298	1760522
364	62178	7.298	1760522
364	62179	7.298	1760522
364	62180	7.298	1760522
364	62181	7.298	1760522
364	62182	7.298	1760522
364	62183	7.298	1760522
364	62184	7.298	1760522
364	62185	7.298	1760522
364	62186	7.298	1760522
364	62187	7.298	1760522
364	62188	7.298	1760522
364	62189	7.298	1760522
364	62315	7.299	1760522
364	62807	7.334	1760523
364	62808	7.334	1760523
365	57481	7.069	750
365	57785	7.099	0
365	62318	7.299	1
365	62807	7.334	0
366	57785	7.099	0
366	57786	7.099	0
366	58084	7.129	0
366	58085	7.129	0
366	58415	7.159	0
366	58416	7.159	0
366	58447	7.16	0
366	58448	7.16	0
366	58823	7.189	0
366	58824	7.189	0
366	58858	7.19	0
366	58859	7.19	0
366	58895	7.191	0
366	58896	7.191	0
366	58931	7.192	0
366	58932	7.192	0
366	59358	7.219	0
366	59359	7.219	0
366	59399	7.22	0
366	59400	7.22	0
366	59443	7.221	0
366	59444	7.221	0
366	59487	7.222	0
366	59488	7.222	0
366	59529	7.223	0
366	59530	7.223	0
366	59568	7.224	0
366	59569	7.224	0
366	59606	7.225	0
366	59607	7.225	0
366	59641	7.226	0
366	59642	7.226	0
366	60199	7.249	0
366	60200	7.249	0
366	60240	7.25	0
366	60241	7.25	0
366	60284	7.251	0
366	60285	7.251	0
366	60328	7.252	0
366	60329	7.252	0
366	60370	7.253	0
366	60371	7.253	0
366	60414	7.254	0
366	60415	7.254	0
366	60459	7.255	0
366	60460	7.255	0
366	60501	7.256	0
366	60502	7.256	0
366	60549	7.257	0
366	60550	7.257	0
366	60593	7.258	0
366	60594	7.258	0
366	60635	7.259	0
366	60636	7.259	0
366	60687	7.26	0
366	60688	7.26	0
366	60734	7.261	0
366	60735	7.261	0
366	60771	7.262	0
366	60772	7.262	0
366	60813	7.263	0
366	60814	7.263	0
366	60849	7.264	0
366	60850	7.264	0
366	61132	7.269	0
366	61163	7.27	0
366	61164	7.27	0
366	61403	7.271	0
366	61404	7.271	0
366	61450	7.272	0
366	61451	7.272	0
366	61488	7.273	0
366	61489	7.273	0
366	61523	7.274	0
366	61524	7.274	0
366	61772	7.286	0
366	61773	7.286	0
366	61817	7.287	0
366	61818	7.287	0
366	61857	7.288	0
366	61858	7.288	0
366	61901	7.289	0
366	61902	7.289	0
366	62173	7.298	0
366	62174	7.298	0
366	62175	7.298	0
366	62176	7.298	0
366	62177	7.298	0
366	62178	7.298	0
366	62179	7.298	0
366	62180	7.298	0
366	62181	7.298	0
366	62182	7.298	0
366	62183	7.298	0
366	62184	7.298	0
366	62185	7.298	0
366	62186	7.298	0
366	62187	7.298	0
366	62188	7.298	0
366	62189	7.298	0
366	62315	7.299	0
366	62807	7.334	0
366	62808	7.334	0
373	57202	7.039087104992	0
373	57477	7.069	0
373	57481	7.069	0
373	57786	7.099	0
373	57786	7.099	0
373	58084	7.129	0
373	58084	7.129	0
373	58085	7.129	0
373	58085	7.129	0
373	58415	7.159	0
373	58415	7.159	0
373	58416	7.159	0
373	58416	7.159	0
373	58447	7.16	0
373	58447	7.16	0
373	58448	7.16	0
373	58448	7.16	0
373	58823	7.189	0
373	58823	7.189	0
373	58824	7.189	0
373	58824	7.189	0
373	58858	7.19	0
373	58858	7.19	0
373	58859	7.19	0
373	58859	7.19	0
373	58895	7.191	0
373	58895	7.191	0
373	58896	7.191	0
373	58896	7.191	0
373	58931	7.192	0
373	58931	7.192	0
373	58932	7.192	0
373	58932	7.192	0
373	59358	7.219	0
373	59358	7.219	0
373	59359	7.219	0
373	59359	7.219	0
373	59399	7.22	0
373	59399	7.22	0
373	59400	7.22	0
373	59400	7.22	0
373	59443	7.221	0
373	59443	7.221	0
373	59444	7.221	0
373	59444	7.221	0
373	59487	7.222	0
373	59487	7.222	0
373	59488	7.222	0
373	59488	7.222	0
373	59529	7.223	0
373	59529	7.223	0
373	59530	7.223	0
373	59530	7.223	0
373	59568	7.224	0
373	59568	7.224	0
373	59569	7.224	0
373	59569	7.224	0
373	59606	7.225	0
373	59606	7.225	0
373	59607	7.225	0
373	59607	7.225	0
373	59641	7.226	0
373	59641	7.226	0
373	59642	7.226	0
373	59642	7.226	0
373	60199	7.249	0
373	60199	7.249	0
373	60200	7.249	0
373	60200	7.249	0
373	60240	7.25	0
373	60240	7.25	0
373	60241	7.25	0
373	60241	7.25	0
373	60284	7.251	0
373	60284	7.251	0
373	60285	7.251	0
373	60285	7.251	0
373	60328	7.252	0
373	60328	7.252	0
373	60329	7.252	0
373	60329	7.252	0
373	60370	7.253	0
373	60370	7.253	0
373	60371	7.253	0
373	60371	7.253	0
373	60414	7.254	0
373	60414	7.254	0
373	60415	7.254	0
373	60415	7.254	0
373	60459	7.255	0
373	60459	7.255	0
373	60460	7.255	0
373	60460	7.255	0
373	60501	7.256	0
373	60501	7.256	0
373	60502	7.256	0
373	60502	7.256	0
373	60549	7.257	0
373	60549	7.257	0
373	60550	7.257	0
373	60550	7.257	0
373	60593	7.258	0
373	60593	7.258	0
373	60594	7.258	0
373	60594	7.258	0
373	60635	7.259	0
373	60635	7.259	0
373	60636	7.259	0
373	60636	7.259	0
373	60687	7.26	0
373	60687	7.26	0
373	60688	7.26	0
373	60688	7.26	0
373	60734	7.261	0
373	60734	7.261	0
373	60735	7.261	0
373	60735	7.261	0
373	60771	7.262	0
373	60771	7.262	0
373	60772	7.262	0
373	60772	7.262	0
373	60813	7.263	0
373	60813	7.263	0
373	60814	7.263	0
373	60814	7.263	0
373	60849	7.264	0
373	60849	7.264	0
373	60850	7.264	0
373	60850	7.264	0
373	61132	7.269	0
373	61132	7.269	0
373	61163	7.27	0
373	61163	7.27	0
373	61164	7.27	0
373	61164	7.27	0
373	61403	7.271	0
373	61403	7.271	0
373	61404	7.271	0
373	61404	7.271	0
373	61450	7.272	0
373	61450	7.272	0
373	61451	7.272	0
373	61451	7.272	0
373	61488	7.273	0
373	61488	7.273	0
373	61489	7.273	0
373	61489	7.273	0
373	61523	7.274	0
373	61523	7.274	0
373	61524	7.274	0
373	61524	7.274	0
373	61772	7.286	0
373	61772	7.286	0
373	61773	7.286	0
373	61773	7.286	0
373	61817	7.287	0
373	61817	7.287	0
373	61818	7.287	0
373	61818	7.287	0
373	61857	7.288	0
373	61857	7.288	0
373	61858	7.288	0
373	61858	7.288	0
373	61901	7.289	0
373	61901	7.289	0
373	61902	7.289	0
373	61902	7.289	0
373	62173	7.298	0
373	62173	7.298	0
373	62174	7.298	0
373	62174	7.298	0
373	62175	7.298	0
373	62175	7.298	0
373	62176	7.298	0
373	62176	7.298	0
373	62177	7.298	0
373	62177	7.298	0
373	62178	7.298	0
373	62178	7.298	0
373	62179	7.298	0
373	62179	7.298	0
373	62180	7.298	0
373	62180	7.298	0
373	62181	7.298	0
373	62181	7.298	0
373	62182	7.298	0
373	62182	7.298	0
373	62183	7.298	0
373	62183	7.298	0
373	62184	7.298	0
373	62184	7.298	0
373	62185	7.298	0
373	62185	7.298	0
373	62186	7.298	0
373	62186	7.298	0
373	62187	7.298	0
373	62187	7.298	0
373	62188	7.298	0
373	62188	7.298	0
373	62189	7.298	0
373	62189	7.298	0
373	62315	7.299	0
373	62315	7.299	0
373	62318	7.299	0
373	62808	7.334	0
375	57785	7.099	2920
375	62807	7.334	4380
377	57785	7.099	0.03
378	57785	7.099	0.00375
379	57785	7.099	0.66
380	57785	7.099	2.64375
406	73314	9.268	65535
406	73622	9.298	1460000
406	74234	9.358	1460000
407	73039	9.23841037742	65535
407	73314	9.268	1460000
407	73318	9.268	1460000
407	73623	9.298	1460000
407	73916	9.328	1460000
407	73917	9.328	1460000
407	73922	9.328	1460000
407	74235	9.358	1460000
408	73039	9.23841037742	65535
408	73314	9.268	2378786
408	73314	9.268	3773251
408	73318	9.268	3773251
408	73623	9.298	3774711
408	73916	9.328	3776171
408	73917	9.328	3776460
408	73922	9.328	3776460
408	74235	9.358	3776461
409	73318	9.268	2309603
410	73039	9.23841037742	0
410	73314	9.268	2313251
410	73318	9.268	2313251
410	73623	9.298	2314711
410	73916	9.328	2316171
410	73917	9.328	2316460
410	73922	9.328	2316460
410	74235	9.358	2316461
411	73314	9.268	2313250
411	73622	9.298	2313251
411	73623	9.298	2313251
411	73916	9.328	2314711
411	73917	9.328	2316171
411	74234	9.358	2316460
411	74235	9.358	2316460
412	73314	9.268	2309603
412	73622	9.298	2310353
412	73623	9.298	2310353
412	73916	9.328	2310353
412	73917	9.328	2310353
412	74234	9.358	2310354
412	74235	9.358	2310354
413	73318	9.268	750
413	73622	9.298	0
413	73922	9.328	1
413	74234	9.358	0
414	73622	9.298	0
414	73623	9.298	0
414	73916	9.328	0
414	73917	9.328	0
414	74234	9.358	0
414	74235	9.358	0
421	73039	9.23841037742	0
421	73314	9.268	0
421	73318	9.268	0
421	73623	9.298	0
421	73623	9.298	0
421	73916	9.328	0
421	73916	9.328	0
421	73917	9.328	0
421	73917	9.328	0
421	73922	9.328	0
421	74235	9.358	0
423	73622	9.298	2920
423	74234	9.358	4380
425	73622	9.298	0.03
426	73622	9.298	0.00375
427	73622	9.298	0.66
428	73622	9.298	2.64375
