file 15585452 1486547458                                        
version 2
run Test-0-20170208-10:50:02-6292
attr configname Test
attr datetime 20170208-10:50:02
attr experiment Test
attr inifile omnetpp.ini
attr iterationvars ""
attr iterationvars2 $repetition=0
attr measurement ""
attr network LTECell
attr processid 6292
attr repetition 0
attr replication #0
attr resultdir results
attr runnumber 0
attr seedset 0
param **.UE*.macCellId 1
param **.UE*.masterId 1
param **.UE*.mobility.initFromDisplayString false
param **.UERx.mobility.initialX 500m
param **.UERx.mobility.initialY 300m
param **.UERx.numTcpApps 1
param **.UERx.tcpApp[0].localPort 1000
param **.UERx.tcpApp[0].typename "\"TCPGenericSrvApp\""
param **.UETx.mobility.initialX 100m
param **.UETx.mobility.initialY 300m
param **.UETx.numTcpApps 1
param **.UETx.tcpApp[0].connectAddress "\"UERx\""
param **.UETx.tcpApp[0].connectPort 1000
param **.UETx.tcpApp[0].idleInterval exponential(1s)
param **.UETx.tcpApp[0].replyLength exponential(250kB)
param **.UETx.tcpApp[0].requestLength 750B
param **.UETx.tcpApp[0].thinkTime 0s
param **.UETx.tcpApp[0].typename "\"TCPBasicClientApp\""
param **.batchSize 10000
param **.channelControl.alpha 1.0
param **.channelControl.carrierFrequency 2100e+6Hz
param **.channelControl.pMax 10W
param **.deployer.numRbDl 50
param **.deployer.numRbUl 50
param **.eNodeB.mobility.initialX 300m
param **.eNodeB.mobility.initialY 300m
param **.eth[*].inputHook[0].typename "\"ThruputMeter\""
param **.eth[*].numInputHooks 1
param **.eth[*].queueType default
param **.fbDelay 1
param **.feedbackComputation "xmldoc(\"config_channel.xml\")"
param **.inputHook[*].typename "\"ThruputMeter\""
param **.mac.address "\"auto\""
param **.mac.maxQueueSize 14
param **.mac.rtsThresholdBytes 3000B
param **.maxInterval 1s
param **.mobility.constraintAreaMaxZ 0m
param **.mobility.constraintAreaMinZ 0m
param **.nic.phy.channelModel "xmldoc(\"config_channel.xml\")"
param **.numBands 50
param **.ppp[*].inputHook[0].typename "\"ThruputMeter\""
param **.ppp[*].numInputHooks 1
param **.ppp[*].queue.frameCapacity 40
param **.ppp[*].queueType "\"DropTailQueue\""
param **.routingRecorder.enabled false
param **.server.numTcpApps 1
param **.server.tcpApp[0].localPort 1000
param **.server.tcpApp[0].typename "\"TCPGenericSrvApp\""
param **.tcp.advertisedWindow 1460000
param **.tcp.mss 1460
param **.tcp.tcpAlgorithmClass "\"TCPNewReno\""
param **.tcp.windowScalingSupport true
param **.tcpApp[*].dataTransferMode "\"object\""
param **.tcpType "\"TCP\""
param *.eNodeB.mobility.initFromDisplayString false

vector 20  LTECell.eNodeB.ppp.queue  queueLength:vector  ETV
attr interpolationmode  sample-hold
attr title  "queue length, vector"
vector 21  LTECell.eNodeB.ppp.ppp  txState:vector  ETV
attr interpolationmode  sample-hold
attr title  "tx state, vector"
vector 43  LTECell.pgw.ppp[0].queue  queueLength:vector  ETV
attr interpolationmode  sample-hold
attr title  "queue length, vector"
vector 44  LTECell.pgw.ppp[0].ppp  txState:vector  ETV
attr interpolationmode  sample-hold
attr title  "tx state, vector"
vector 54  LTECell.pgw.pppInterface.queue  queueLength:vector  ETV
attr interpolationmode  sample-hold
attr title  "queue length, vector"
vector 55  LTECell.pgw.pppInterface.ppp  txState:vector  ETV
attr interpolationmode  sample-hold
attr title  "tx state, vector"
vector 70  LTECell.router.ppp[0].queue  queueLength:vector  ETV
attr interpolationmode  sample-hold
attr title  "queue length, vector"
vector 71  LTECell.router.ppp[0].ppp  txState:vector  ETV
attr interpolationmode  sample-hold
attr title  "tx state, vector"
vector 81  LTECell.router.ppp[1].queue  queueLength:vector  ETV
attr interpolationmode  sample-hold
attr title  "queue length, vector"
vector 82  LTECell.router.ppp[1].ppp  txState:vector  ETV
attr interpolationmode  sample-hold
attr title  "tx state, vector"
vector 100  LTECell.server.ppp[0].queue  queueLength:vector  ETV
attr interpolationmode  sample-hold
attr title  "queue length, vector"
vector 101  LTECell.server.ppp[0].ppp  txState:vector  ETV
attr interpolationmode  sample-hold
attr title  "tx state, vector"
vector 10  LTECell.eNodeB.nic.mac  receivedPacketFromLowerLayer:vector(packetBytes)  ETV
attr interpolationmode  none
attr source  receivedPacketFromLowerLayer
vector 111  LTECell.UETx.tcpApp[0]  numActiveSessions:vector  ETV
attr interpolationmode  sample-hold
attr source  sum(connect)
attr title  "number of active sessions, vector"
vector 216  LTECell.UETx.tcp  tcpRcvQueueBytes  ETV
vector 203  LTECell.UETx.tcp  "advertised window"  ETV
vector 202  LTECell.UETx.tcp  "receive window"  ETV
vector 205  LTECell.UETx.tcp  "sent ack"  ETV
vector 112  LTECell.UETx.nic.pdcpRrc  receivedPacketFromUpperLayer:vector(packetBytes)  ETV
attr interpolationmode  none
attr source  receivedPacketFromUpperLayer
vector 115  LTECell.UETx.nic.pdcpRrc  sentPacketToLowerLayer:vector(packetBytes)  ETV
attr interpolationmode  none
attr source  sentPacketToLowerLayer
vector 116  LTECell.UETx.nic.mac  receivedPacketFromUpperLayer:vector(packetBytes)  ETV
attr interpolationmode  none
attr source  receivedPacketFromUpperLayer
vector 119  LTECell.UETx.nic.mac  sentPacketToLowerLayer:vector(packetBytes)  ETV
attr interpolationmode  none
attr source  sentPacketToLowerLayer
vector 12  LTECell.eNodeB.nic.mac  sentPacketToLowerLayer:vector(packetBytes)  ETV
attr interpolationmode  none
attr source  sentPacketToLowerLayer
vector 117  LTECell.UETx.nic.mac  receivedPacketFromLowerLayer:vector(packetBytes)  ETV
attr interpolationmode  none
attr source  receivedPacketFromLowerLayer
vector 118  LTECell.UETx.nic.mac  sentPacketToUpperLayer:vector(packetBytes)  ETV
attr interpolationmode  none
attr source  sentPacketToUpperLayer
vector 15  LTECell.eNodeB.nic.phy  averageCqiUlvect:vector  ETV
attr source  averageCqiUlvect
attr title  "Average Cqi reported in UL, vector"
attr unit  cqi
vector 11  LTECell.eNodeB.nic.mac  sentPacketToUpperLayer:vector(packetBytes)  ETV
attr interpolationmode  none
attr source  sentPacketToUpperLayer
vector 13  LTECell.eNodeB.nic.mac  measuredItbs:vector  ETV
attr source  measuredItbs
attr title  "TBS index, vector"
attr unit  ""
vector 6  LTECell.eNodeB.nic.pdcpRrc  receivedPacketFromLowerLayer:vector(packetBytes)  ETV
attr interpolationmode  none
attr source  receivedPacketFromLowerLayer
vector 7  LTECell.eNodeB.nic.pdcpRrc  sentPacketToUpperLayer:vector(packetBytes)  ETV
attr interpolationmode  none
attr source  sentPacketToUpperLayer
vector 5  LTECell.eNodeB.nic.pdcpRrc  receivedPacketFromUpperLayer:vector(packetBytes)  ETV
attr interpolationmode  none
attr source  receivedPacketFromUpperLayer
vector 8  LTECell.eNodeB.nic.pdcpRrc  sentPacketToLowerLayer:vector(packetBytes)  ETV
attr interpolationmode  none
attr source  sentPacketToLowerLayer
vector 9  LTECell.eNodeB.nic.mac  receivedPacketFromUpperLayer:vector(packetBytes)  ETV
attr interpolationmode  none
attr source  receivedPacketFromUpperLayer
vector 139  LTECell.UERx.nic.phy  averageCqiDlvect:vector  ETV
attr source  averageCqiDlvect
attr title  "Average Cqi reported in DL, vector"
attr unit  cqi
vector 135  LTECell.UERx.nic.mac  receivedPacketFromLowerLayer:vector(packetBytes)  ETV
attr interpolationmode  none
attr source  receivedPacketFromLowerLayer
vector 137  LTECell.UERx.nic.mac  sentPacketToLowerLayer:vector(packetBytes)  ETV
attr interpolationmode  none
attr source  sentPacketToLowerLayer
vector 136  LTECell.UERx.nic.mac  sentPacketToUpperLayer:vector(packetBytes)  ETV
attr interpolationmode  none
attr source  sentPacketToUpperLayer
vector 131  LTECell.UERx.nic.pdcpRrc  receivedPacketFromLowerLayer:vector(packetBytes)  ETV
attr interpolationmode  none
attr source  receivedPacketFromLowerLayer
vector 132  LTECell.UERx.nic.pdcpRrc  sentPacketToUpperLayer:vector(packetBytes)  ETV
attr interpolationmode  none
attr source  sentPacketToUpperLayer
vector 182  LTECell.UERx.tcp  "rcvd seq"  ETV
vector 183  LTECell.UERx.tcp  "rcvd ack"  ETV
vector 179  LTECell.UERx.tcp  "advertised window"  ETV
vector 177  LTECell.UERx.tcp  "send window"  ETV
vector 192  LTECell.UERx.tcp  tcpRcvQueueBytes  ETV
vector 178  LTECell.UERx.tcp  "receive window"  ETV
vector 181  LTECell.UERx.tcp  "sent ack"  ETV
vector 130  LTECell.UERx.nic.pdcpRrc  receivedPacketFromUpperLayer:vector(packetBytes)  ETV
attr interpolationmode  none
attr source  receivedPacketFromUpperLayer
vector 133  LTECell.UERx.nic.pdcpRrc  sentPacketToLowerLayer:vector(packetBytes)  ETV
attr interpolationmode  none
attr source  sentPacketToLowerLayer
vector 134  LTECell.UERx.nic.mac  receivedPacketFromUpperLayer:vector(packetBytes)  ETV
attr interpolationmode  none
attr source  receivedPacketFromUpperLayer
vector 121  LTECell.UETx.nic.phy  averageCqiDlvect:vector  ETV
attr source  averageCqiDlvect
attr title  "Average Cqi reported in DL, vector"
attr unit  cqi
vector 113  LTECell.UETx.nic.pdcpRrc  receivedPacketFromLowerLayer:vector(packetBytes)  ETV
attr interpolationmode  none
attr source  receivedPacketFromLowerLayer
vector 114  LTECell.UETx.nic.pdcpRrc  sentPacketToUpperLayer:vector(packetBytes)  ETV
attr interpolationmode  none
attr source  sentPacketToUpperLayer
vector 206  LTECell.UETx.tcp  "rcvd seq"  ETV
vector 207  LTECell.UETx.tcp  "rcvd ack"  ETV
vector 201  LTECell.UETx.tcp  "send window"  ETV
vector 109  LTECell.UETx.tcpApp[0]  sentPk:vector(packetBytes)  ETV
attr interpolationmode  none
attr source  sentPk
attr title  "packets sent, vector(packetBytes)"
vector 204  LTECell.UETx.tcp  "sent seq"  ETV
vector 208  LTECell.UETx.tcp  "unacked bytes"  ETV
vector 184  LTECell.UERx.tcp  "unacked bytes"  ETV
vector 185  LTECell.UERx.tcp  "rcvd dupAcks"  ETV
vector 127  LTECell.UERx.tcpApp[0]  rcvdPk:vector(packetBytes)  ETV
attr interpolationmode  none
attr source  rcvdPk
attr title  "packets received, vector(packetBytes)"
vector 129  LTECell.UERx.tcpApp[0]  endToEndDelay:vector  ETV
attr interpolationmode  none
attr source  messageAge(rcvdPk)
attr title  "end-to-end delay, vector"
attr unit  s
vector 128  LTECell.UERx.tcpApp[0]  sentPk:vector(packetBytes)  ETV
attr interpolationmode  none
attr source  sentPk
attr title  "packets sent, vector(packetBytes)"
vector 180  LTECell.UERx.tcp  "sent seq"  ETV
vector 220  LTECell.UETx.tcp  "measured RTT"  ETV
vector 221  LTECell.UETx.tcp  "smoothed RTT"  ETV
vector 222  LTECell.UETx.tcp  RTTVAR  ETV
vector 223  LTECell.UETx.tcp  RTO  ETV
vector 218  LTECell.UETx.tcp  cwnd  ETV
vector 209  LTECell.UETx.tcp  "rcvd dupAcks"  ETV
vector 196  LTECell.UERx.tcp  "measured RTT"  ETV
vector 197  LTECell.UERx.tcp  "smoothed RTT"  ETV
vector 198  LTECell.UERx.tcp  RTTVAR  ETV
vector 199  LTECell.UERx.tcp  RTO  ETV
vector 194  LTECell.UERx.tcp  cwnd  ETV
vector 108  LTECell.UETx.tcpApp[0]  rcvdPk:vector(packetBytes)  ETV
attr interpolationmode  none
attr source  rcvdPk
attr title  "packets received, vector(packetBytes)"
vector 110  LTECell.UETx.tcpApp[0]  endToEndDelay:vector  ETV
attr interpolationmode  none
attr source  messageAge(rcvdPk)
attr title  "end-to-end delay, vector"
attr unit  s
194	11026 2540 6218 14865 1.081 1.356 115 2920 169360 9906100 1123449122000
196	13566 149 6218 13126 1.081 1.297 7 0.034 0.042 0.25 0.008982
197	13715 200 6218 13126 1.081 1.297 7 0.00425 0.021573357583 0.098986496928 0.0016266559204372
198	13915 197 6218 13126 1.081 1.297 7 0.308350212098 0.6605 3.264135375979 1.6188332536515
199	14112 200 6218 13126 1.081 1.297 7 1.254974205975 2.64625 13.155528000844 26.234787269199
177	14312 2771 5483 14865 1.013 1.356 117 65535 1460000 169425535 2.4726989483622e+14
178	17083 2761 5483 14581 1.013 1.328 118 65535 1460000 170885535 2.4940149483622e+14
179	19844 2784 5483 14581 1.013 1.328 119 315536 1710752 200788941 3.4261940390572e+14
180	22628 2555 5856 12419 1.047 1.289 114 253250 418230 38274360 13113384975400
181	25183 2645 5483 14581 1.013 1.328 118 250001 250752 29587870 7419000991124
182	27828 2701 5483 14865 1.013 1.356 119 250000 250752 29837119 7481124925621
183	30529 2696 5483 14865 1.013 1.356 119 0 419393 39785787 13705190325677
184	33225 3743 5785 14865 1.041 1.356 175 0 83220 7139935 396847620949
185	36968 2072 5853 14865 1.047 1.356 117 0 0 0 0
192	39040 2072 5483 14581 1.013 1.328 119 0 0 0 0
vector 264  LTECell.UETx.tcp  tcpRcvQueueBytes  ETV
vector 251  LTECell.UETx.tcp  "advertised window"  ETV
vector 250  LTECell.UETx.tcp  "receive window"  ETV
vector 253  LTECell.UETx.tcp  "sent ack"  ETV
vector 230  LTECell.UERx.tcp  "rcvd seq"  ETV
vector 231  LTECell.UERx.tcp  "rcvd ack"  ETV
vector 227  LTECell.UERx.tcp  "advertised window"  ETV
vector 225  LTECell.UERx.tcp  "send window"  ETV
vector 240  LTECell.UERx.tcp  tcpRcvQueueBytes  ETV
vector 226  LTECell.UERx.tcp  "receive window"  ETV
vector 229  LTECell.UERx.tcp  "sent ack"  ETV
vector 254  LTECell.UETx.tcp  "rcvd seq"  ETV
vector 255  LTECell.UETx.tcp  "rcvd ack"  ETV
vector 249  LTECell.UETx.tcp  "send window"  ETV
vector 252  LTECell.UETx.tcp  "sent seq"  ETV
vector 256  LTECell.UETx.tcp  "unacked bytes"  ETV
vector 232  LTECell.UERx.tcp  "unacked bytes"  ETV
vector 233  LTECell.UERx.tcp  "rcvd dupAcks"  ETV
vector 228  LTECell.UERx.tcp  "sent seq"  ETV
vector 268  LTECell.UETx.tcp  "measured RTT"  ETV
vector 269  LTECell.UETx.tcp  "smoothed RTT"  ETV
vector 270  LTECell.UETx.tcp  RTTVAR  ETV
vector 271  LTECell.UETx.tcp  RTO  ETV
vector 266  LTECell.UETx.tcp  cwnd  ETV
vector 257  LTECell.UETx.tcp  "rcvd dupAcks"  ETV
vector 244  LTECell.UERx.tcp  "measured RTT"  ETV
vector 245  LTECell.UERx.tcp  "smoothed RTT"  ETV
vector 246  LTECell.UERx.tcp  RTTVAR  ETV
vector 247  LTECell.UERx.tcp  RTO  ETV
vector 242  LTECell.UERx.tcp  cwnd  ETV
242	42540 2666 21024 30299 2.43 2.73 120 2920 176660 10774800 1274398376000
244	45206 152 21024 27495 2.43 2.64 7 0.033 0.041 0.244 0.00855
245	45358 203 21024 27495 2.43 2.64 7 0.00425 0.021427636147 0.094006546976 0.0014818962209119
246	45561 199 21024 27495 2.43 2.64 7 0.308680229188 0.6605 3.260659484866 1.615470118431
247	45760 203 21024 27495 2.43 2.64 7 1.256148552899 2.64625 13.13664448644 26.162517521923
225	45963 2903 20291 30299 2.362 2.73 122 65535 1460000 176725535 2.5792789483622e+14
226	48866 2934 20291 30015 2.362 2.702 123 65535 1460000 178185535 2.6005949483622e+14
227	51800 2958 20291 30015 2.362 2.702 124 652648 2047864 251144584 5.1248853676108e+14
228	54758 2721 20660 27490 2.396 2.64 119 590501 762781 80520279 54782641374839
229	57479 2813 20291 30015 2.362 2.702 123 587113 587864 72306401 42505818652041
230	60292 2829 20291 30299 2.362 2.73 124 587112 587864 72892762 42849636744858
231	63121 2824 20291 30299 2.362 2.73 124 0 763787 83402139 56881441494801
232	65945 3934 20589 30299 2.39 2.73 182 0 87145 7726761 446813651901
233	69879 2174 20657 30299 2.396 2.73 122 0 0 0 0
240	72053 2216 20291 30015 2.362 2.702 124 0 0 0 0
vector 312  LTECell.UETx.tcp  tcpRcvQueueBytes  ETV
vector 299  LTECell.UETx.tcp  "advertised window"  ETV
vector 298  LTECell.UETx.tcp  "receive window"  ETV
vector 301  LTECell.UETx.tcp  "sent ack"  ETV
vector 278  LTECell.UERx.tcp  "rcvd seq"  ETV
vector 279  LTECell.UERx.tcp  "rcvd ack"  ETV
vector 275  LTECell.UERx.tcp  "advertised window"  ETV
vector 273  LTECell.UERx.tcp  "send window"  ETV
vector 288  LTECell.UERx.tcp  tcpRcvQueueBytes  ETV
vector 274  LTECell.UERx.tcp  "receive window"  ETV
vector 277  LTECell.UERx.tcp  "sent ack"  ETV
vector 302  LTECell.UETx.tcp  "rcvd seq"  ETV
vector 303  LTECell.UETx.tcp  "rcvd ack"  ETV
vector 297  LTECell.UETx.tcp  "send window"  ETV
vector 300  LTECell.UETx.tcp  "sent seq"  ETV
vector 304  LTECell.UETx.tcp  "unacked bytes"  ETV
vector 280  LTECell.UERx.tcp  "unacked bytes"  ETV
vector 281  LTECell.UERx.tcp  "rcvd dupAcks"  ETV
vector 276  LTECell.UERx.tcp  "sent seq"  ETV
vector 316  LTECell.UETx.tcp  "measured RTT"  ETV
vector 317  LTECell.UETx.tcp  "smoothed RTT"  ETV
vector 318  LTECell.UETx.tcp  RTTVAR  ETV
vector 319  LTECell.UETx.tcp  RTO  ETV
vector 314  LTECell.UETx.tcp  cwnd  ETV
vector 305  LTECell.UETx.tcp  "rcvd dupAcks"  ETV
vector 292  LTECell.UERx.tcp  "measured RTT"  ETV
vector 293  LTECell.UERx.tcp  "smoothed RTT"  ETV
vector 294  LTECell.UERx.tcp  RTTVAR  ETV
vector 295  LTECell.UERx.tcp  RTO  ETV
vector 290  LTECell.UERx.tcp  cwnd  ETV
290	75697 214 45984 47731 5.59 5.725 10 2920 16060 94900 1076458000
292	75911 87 45984 47394 5.59 5.692 4 0.034 0.034 0.136 0.004624
293	75998 111 45984 47394 5.59 5.692 4 0.00425 0.014069824219 0.037511230469 0.00040547144342172
294	76109 108 45984 47394 5.59 5.692 4 0.451024902344 0.6605 2.205384277344 1.2403597469582
295	76217 111 45984 47394 5.59 5.692 4 1.818169433595 2.64625 8.859048339845 20.002451974284
273	76328 284 45249 47731 5.522 5.725 12 65535 1460000 16125535 23451894836225
274	76612 308 45249 47451 5.522 5.697 13 65535 1460000 17585535 25583494836225
275	76920 334 45249 47451 5.522 5.697 14 1442607 2837823 36939080 1.008010457084e+14
276	77254 214 45620 46878 5.556 5.658 9 1380501 1392181 12477069 17297600210529
277	77468 310 45249 47451 5.522 5.697 13 1377072 1377823 17910938 24677054368682
278	77778 334 45249 47731 5.522 5.725 14 1377071 1377823 19287258 26571309981578
279	78112 328 45249 47731 5.522 5.725 14 0 1393619 18038425 25029899398539
280	78440 339 45549 47731 5.55 5.725 17 0 7277 45146 210023646
281	78779 215 45617 47731 5.556 5.725 12 0 0 0 0
288	78994 250 45249 47451 5.522 5.697 14 0 0 0 0
vector 360  LTECell.UETx.tcp  tcpRcvQueueBytes  ETV
vector 347  LTECell.UETx.tcp  "advertised window"  ETV
vector 346  LTECell.UETx.tcp  "receive window"  ETV
vector 349  LTECell.UETx.tcp  "sent ack"  ETV
vector 326  LTECell.UERx.tcp  "rcvd seq"  ETV
vector 327  LTECell.UERx.tcp  "rcvd ack"  ETV
vector 323  LTECell.UERx.tcp  "advertised window"  ETV
vector 321  LTECell.UERx.tcp  "send window"  ETV
vector 336  LTECell.UERx.tcp  tcpRcvQueueBytes  ETV
vector 322  LTECell.UERx.tcp  "receive window"  ETV
vector 325  LTECell.UERx.tcp  "sent ack"  ETV
vector 350  LTECell.UETx.tcp  "rcvd seq"  ETV
vector 351  LTECell.UETx.tcp  "rcvd ack"  ETV
vector 345  LTECell.UETx.tcp  "send window"  ETV
vector 348  LTECell.UETx.tcp  "sent seq"  ETV
vector 352  LTECell.UETx.tcp  "unacked bytes"  ETV
vector 328  LTECell.UERx.tcp  "unacked bytes"  ETV
vector 329  LTECell.UERx.tcp  "rcvd dupAcks"  ETV
vector 324  LTECell.UERx.tcp  "sent seq"  ETV
vector 364  LTECell.UETx.tcp  "measured RTT"  ETV
vector 365  LTECell.UETx.tcp  "smoothed RTT"  ETV
vector 366  LTECell.UETx.tcp  RTTVAR  ETV
vector 367  LTECell.UETx.tcp  RTO  ETV
vector 362  LTECell.UETx.tcp  cwnd  ETV
vector 353  LTECell.UETx.tcp  "rcvd dupAcks"  ETV
vector 340  LTECell.UERx.tcp  "measured RTT"  ETV
vector 341  LTECell.UERx.tcp  "smoothed RTT"  ETV
vector 342  LTECell.UERx.tcp  RTTVAR  ETV
vector 343  LTECell.UERx.tcp  RTO  ETV
vector 338  LTECell.UERx.tcp  cwnd  ETV
338	80672 323 53006 55049 6.633 6.774 15 2920 23360 197100 3186742000
340	80995 88 53006 54570 6.633 6.735 4 0.034 0.034 0.136 0.004624
341	81083 112 53006 54570 6.633 6.735 4 0.00425 0.014069824219 0.037511230469 0.00040547144342172
342	81195 109 53006 54570 6.633 6.735 4 0.451024902344 0.6605 2.205384277344 1.2403597469582
343	81304 112 53006 54570 6.633 6.735 4 1.818169433595 2.64625 8.859048339845 20.002451974284
321	81416 404 52271 55049 6.565 6.774 17 65535 1460000 23425535 34109894836225
322	81820 430 52271 54767 6.565 6.746 18 65535 1460000 24885535 36241494836225
323	82250 456 52271 54767 6.565 6.746 19 1703460 3098676 56084397 1.6903393918353e+14
324	82706 336 52640 54042 6.599 6.707 14 1641250 1660230 23110360 38149680605400
325	83042 432 52271 54767 6.565 6.746 18 1637925 1638676 29495402 48332152705952
326	83474 454 52271 55049 6.565 6.774 19 1637924 1638676 31132575 51012487008377
327	83928 448 52271 55049 6.565 6.774 19 0 1660662 29733594 49116770359986
328	84376 508 52569 55049 6.593 6.774 25 0 10220 105218 714104448
329	84884 304 52637 55049 6.599 6.774 17 0 0 0 0
336	85188 342 52271 54767 6.565 6.746 19 0 0 0 0
vector 408  LTECell.UETx.tcp  tcpRcvQueueBytes  ETV
vector 395  LTECell.UETx.tcp  "advertised window"  ETV
vector 394  LTECell.UETx.tcp  "receive window"  ETV
vector 397  LTECell.UETx.tcp  "sent ack"  ETV
vector 374  LTECell.UERx.tcp  "rcvd seq"  ETV
vector 375  LTECell.UERx.tcp  "rcvd ack"  ETV
vector 371  LTECell.UERx.tcp  "advertised window"  ETV
vector 369  LTECell.UERx.tcp  "send window"  ETV
vector 384  LTECell.UERx.tcp  tcpRcvQueueBytes  ETV
vector 370  LTECell.UERx.tcp  "receive window"  ETV
vector 373  LTECell.UERx.tcp  "sent ack"  ETV
vector 398  LTECell.UETx.tcp  "rcvd seq"  ETV
vector 399  LTECell.UETx.tcp  "rcvd ack"  ETV
vector 393  LTECell.UETx.tcp  "send window"  ETV
vector 396  LTECell.UETx.tcp  "sent seq"  ETV
vector 400  LTECell.UETx.tcp  "unacked bytes"  ETV
vector 376  LTECell.UERx.tcp  "unacked bytes"  ETV
vector 377  LTECell.UERx.tcp  "rcvd dupAcks"  ETV
vector 372  LTECell.UERx.tcp  "sent seq"  ETV
vector 412  LTECell.UETx.tcp  "measured RTT"  ETV
vector 413  LTECell.UETx.tcp  "smoothed RTT"  ETV
vector 414  LTECell.UETx.tcp  RTTVAR  ETV
vector 415  LTECell.UETx.tcp  RTO  ETV
vector 410  LTECell.UETx.tcp  cwnd  ETV
vector 401  LTECell.UETx.tcp  "rcvd dupAcks"  ETV
vector 388  LTECell.UERx.tcp  "measured RTT"  ETV
vector 389  LTECell.UERx.tcp  "smoothed RTT"  ETV
vector 390  LTECell.UERx.tcp  RTTVAR  ETV
vector 391  LTECell.UERx.tcp  RTO  ETV
vector 386  LTECell.UERx.tcp  cwnd  ETV
386	86958 1577 59274 65607 7.485 7.744 73 2920 108040 4050040 293785638400
388	88535 153 59274 65156 7.485 7.71 7 0.034 0.042 0.259 0.009673
389	88688 204 59274 65156 7.485 7.71 7 0.00425 0.022781395913 0.099530228617 0.0016749483694844
390	88892 200 59274 65156 7.485 7.71 7 0.309593559266 0.6605 3.265096252444 1.6190426363998
391	89092 204 59274 65156 7.485 7.71 7 1.261155632977 2.64625 13.159915238393 26.237848347294
369	89296 1768 58539 65607 7.417 7.744 75 65535 1460000 108105535 1.5774269483622e+14
370	91064 1792 58539 65323 7.417 7.716 76 65535 1460000 109565535 1.5987429483622e+14
371	92856 1818 58539 65323 7.417 7.716 77 1916301 3311517 252196304 8.2980479866047e+14
372	94674 1698 58908 64066 7.451 7.676 72 1854251 1957911 137237832 2.6165271255319e+14
373	96372 1794 58539 65323 7.417 7.716 76 1850766 1851517 140714468 2.6053370456202e+14
374	98166 1818 58539 65607 7.417 7.744 77 1850765 1851517 142564482 2.6395625523271e+14
375	99984 1812 58539 65607 7.417 7.744 77 0 1959324 144970053 2.7660780309783e+14
376	101796 2381 58837 65607 7.445 7.744 112 0 52560 2862793 100778311585
377	104177 1320 58905 65607 7.451 7.744 75 0 0 0 0
384	105497 1356 58539 65323 7.417 7.716 77 0 0 0 0
vector 456  LTECell.UETx.tcp  tcpRcvQueueBytes  ETV
vector 443  LTECell.UETx.tcp  "advertised window"  ETV
vector 442  LTECell.UETx.tcp  "receive window"  ETV
vector 445  LTECell.UETx.tcp  "sent ack"  ETV
vector 422  LTECell.UERx.tcp  "rcvd seq"  ETV
vector 423  LTECell.UERx.tcp  "rcvd ack"  ETV
vector 419  LTECell.UERx.tcp  "advertised window"  ETV
vector 417  LTECell.UERx.tcp  "send window"  ETV
vector 432  LTECell.UERx.tcp  tcpRcvQueueBytes  ETV
vector 418  LTECell.UERx.tcp  "receive window"  ETV
vector 421  LTECell.UERx.tcp  "sent ack"  ETV
vector 446  LTECell.UETx.tcp  "rcvd seq"  ETV
vector 447  LTECell.UETx.tcp  "rcvd ack"  ETV
vector 441  LTECell.UETx.tcp  "send window"  ETV
vector 444  LTECell.UETx.tcp  "sent seq"  ETV
vector 448  LTECell.UETx.tcp  "unacked bytes"  ETV
vector 424  LTECell.UERx.tcp  "unacked bytes"  ETV
vector 425  LTECell.UERx.tcp  "rcvd dupAcks"  ETV
vector 420  LTECell.UERx.tcp  "sent seq"  ETV
vector 460  LTECell.UETx.tcp  "measured RTT"  ETV
vector 461  LTECell.UETx.tcp  "smoothed RTT"  ETV
vector 462  LTECell.UETx.tcp  RTTVAR  ETV
vector 463  LTECell.UETx.tcp  RTO  ETV
vector 458  LTECell.UETx.tcp  cwnd  ETV
vector 449  LTECell.UETx.tcp  "rcvd dupAcks"  ETV
vector 436  LTECell.UERx.tcp  "measured RTT"  ETV
vector 437  LTECell.UERx.tcp  "smoothed RTT"  ETV
vector 438  LTECell.UERx.tcp  RTTVAR  ETV
vector 439  LTECell.UERx.tcp  RTO  ETV
vector 434  LTECell.UERx.tcp  cwnd  ETV
434	108281 1006 73702 78179 9.181 9.396 46 2920 68620 1645420 76138620400
436	109287 132 73702 77513 9.181 9.351 6 0.034 0.034 0.204 0.006936
437	109419 174 73702 77513 9.181 9.351 6 0.00425 0.018740959168 0.072813285829 0.001030964901039
438	109593 170 73702 77513 9.181 9.351 6 0.34967566681 0.6605 2.952198005678 1.5203514588283
439	109763 174 73702 77513 9.181 9.351 6 1.417443626408 2.64625 11.881605308541 24.58798724992
417	109937 1149 72967 78179 9.113 9.396 48 65535 1460000 68685535 1.0018949483622e+14
418	111086 1172 72967 77895 9.113 9.368 49 65535 1460000 70145535 1.0232109483622e+14
419	112258 1198 72967 77895 9.113 9.368 50 2340458 3735674 183993222 6.8080763486281e+14
420	113456 1078 73340 76789 9.147 9.328 45 2278251 2342491 103966695 2.4021781593784e+14
421	114534 1174 72967 77895 9.113 9.368 49 2274923 2275674 111507229 2.5375228869922e+14
422	115708 1199 72967 78179 9.113 9.396 50 2274922 2275674 113781400 2.5892414130695e+14
423	116907 1193 72967 78179 9.113 9.396 50 0 2343432 113275240 2.6188325479899e+14
424	118100 1520 73269 78179 9.141 9.396 71 0 33060 1097641 23951328801
425	119620 863 73337 78179 9.147 9.396 48 0 0 0 0
432	120483 898 72967 77895 9.113 9.368 50 0 0 0 0
vector 504  LTECell.UETx.tcp  tcpRcvQueueBytes  ETV
vector 491  LTECell.UETx.tcp  "advertised window"  ETV
vector 490  LTECell.UETx.tcp  "receive window"  ETV
vector 493  LTECell.UETx.tcp  "sent ack"  ETV
vector 470  LTECell.UERx.tcp  "rcvd seq"  ETV
vector 471  LTECell.UERx.tcp  "rcvd ack"  ETV
vector 467  LTECell.UERx.tcp  "advertised window"  ETV
vector 465  LTECell.UERx.tcp  "send window"  ETV
vector 480  LTECell.UERx.tcp  tcpRcvQueueBytes  ETV
vector 466  LTECell.UERx.tcp  "receive window"  ETV
vector 469  LTECell.UERx.tcp  "sent ack"  ETV
vector 494  LTECell.UETx.tcp  "rcvd seq"  ETV
vector 495  LTECell.UETx.tcp  "rcvd ack"  ETV
vector 489  LTECell.UETx.tcp  "send window"  ETV
vector 492  LTECell.UETx.tcp  "sent seq"  ETV
vector 496  LTECell.UETx.tcp  "unacked bytes"  ETV
vector 472  LTECell.UERx.tcp  "unacked bytes"  ETV
vector 473  LTECell.UERx.tcp  "rcvd dupAcks"  ETV
vector 468  LTECell.UERx.tcp  "sent seq"  ETV
vector 508  LTECell.UETx.tcp  "measured RTT"  ETV
vector 509  LTECell.UETx.tcp  "smoothed RTT"  ETV
vector 510  LTECell.UETx.tcp  RTTVAR  ETV
vector 511  LTECell.UETx.tcp  RTO  ETV
vector 506  LTECell.UETx.tcp  cwnd  ETV
vector 497  LTECell.UETx.tcp  "rcvd dupAcks"  ETV
vector 484  LTECell.UERx.tcp  "measured RTT"  ETV
vector 485  LTECell.UERx.tcp  "smoothed RTT"  ETV
vector 486  LTECell.UERx.tcp  RTTVAR  ETV
vector 487  LTECell.UERx.tcp  RTO  ETV
vector 482  LTECell.UERx.tcp  cwnd  ETV
482	122809 6511 86092 104057 10.799 11.184 272 2920 398580 54604000 14536335356800
484	129320 207 86092 103462 10.799 11.144 9 0.034 0.074 0.379 0.017403
485	129527 276 86092 103462 10.799 11.144 9 0.00425 0.032108445302 0.154240882891 0.0032776086668715
486	129803 272 86092 103462 10.799 11.144 9 0.246221352966 0.6605 3.783318091666 1.7527199422381
487	130075 276 86092 103462 10.799 11.144 9 1.016993857166 2.64625 15.287513249555 28.486524161371
465	130351 6903 85361 104057 10.731 11.184 274 65535 1460000 398645535 5.8193109483622e+14
466	137254 6809 85361 103775 10.731 11.156 275 65535 1460000 400105535 5.8406269483622e+14
467	144063 6836 85361 103775 10.731 11.156 276 2744858 4140074 1139869720 4.7114845254608e+15
468	150899 6709 85730 97894 10.765 11.07 271 2682751 3076951 780439621 2.2510851242085e+15
469	157608 6811 85361 103775 10.731 11.156 275 2679323 2680074 737019327 1.9752635946388e+15
470	164419 6956 85361 104057 10.731 11.184 276 2679322 2680074 739697898 1.9824383361113e+15
471	171375 6950 85361 104057 10.731 11.184 276 0 3078189 792356937 2.2867080073829e+15
472	178325 9615 85659 104057 10.759 11.184 410 0 198337 40179533 5297470068185
473	187940 5262 85727 104057 10.765 11.184 274 0 0 0 0
480	193202 5180 85361 103775 10.731 11.156 276 0 0 0 0
vector 552  LTECell.UETx.tcp  tcpRcvQueueBytes  ETV
vector 539  LTECell.UETx.tcp  "advertised window"  ETV
vector 538  LTECell.UETx.tcp  "receive window"  ETV
vector 541  LTECell.UETx.tcp  "sent ack"  ETV
vector 518  LTECell.UERx.tcp  "rcvd seq"  ETV
vector 519  LTECell.UERx.tcp  "rcvd ack"  ETV
vector 515  LTECell.UERx.tcp  "advertised window"  ETV
vector 513  LTECell.UERx.tcp  "send window"  ETV
vector 528  LTECell.UERx.tcp  tcpRcvQueueBytes  ETV
vector 514  LTECell.UERx.tcp  "receive window"  ETV
vector 517  LTECell.UERx.tcp  "sent ack"  ETV
vector 542  LTECell.UETx.tcp  "rcvd seq"  ETV
vector 543  LTECell.UETx.tcp  "rcvd ack"  ETV
vector 537  LTECell.UETx.tcp  "send window"  ETV
vector 540  LTECell.UETx.tcp  "sent seq"  ETV
vector 544  LTECell.UETx.tcp  "unacked bytes"  ETV
vector 520  LTECell.UERx.tcp  "unacked bytes"  ETV
vector 521  LTECell.UERx.tcp  "rcvd dupAcks"  ETV
vector 516  LTECell.UERx.tcp  "sent seq"  ETV
vector 556  LTECell.UETx.tcp  "measured RTT"  ETV
vector 557  LTECell.UETx.tcp  "smoothed RTT"  ETV
vector 558  LTECell.UETx.tcp  RTTVAR  ETV
vector 559  LTECell.UETx.tcp  RTO  ETV
vector 554  LTECell.UETx.tcp  cwnd  ETV
vector 545  LTECell.UETx.tcp  "rcvd dupAcks"  ETV
vector 532  LTECell.UERx.tcp  "measured RTT"  ETV
vector 533  LTECell.UERx.tcp  "smoothed RTT"  ETV
vector 534  LTECell.UERx.tcp  RTTVAR  ETV
vector 535  LTECell.UERx.tcp  RTO  ETV
vector 530  LTECell.UERx.tcp  cwnd  ETV
530	199810 2501 105722 113959 11.415 11.687 103 2920 151840 7970140 810815876400
532	202311 168 105722 111909 11.415 11.619 7 0.034 0.034 0.238 0.008092
533	202479 219 105722 111909 11.415 11.619 7 0.00425 0.020648339272 0.093461625101 0.0014573188157307
534	202698 215 105722 111909 11.415 11.619 7 0.307873588563 0.6605 3.260071594241 1.615137605363
535	202913 219 105722 111909 11.415 11.619 7 1.252142693524 2.64625 13.133748002065 26.155848574865
513	203132 2726 104987 113959 11.347 11.687 105 65535 1460000 151905535 2.2169069483622e+14
514	205858 2750 104987 113679 11.347 11.659 106 65535 1460000 153365535 2.2382229483622e+14
515	208608 2778 104987 113679 11.347 11.659 107 2899010 4294226 456691647 1.9530472119527e+15
516	211386 2648 105356 111597 11.381 11.615 102 2836751 2984211 296869062 8.6422025223462e+14
517	214034 2752 104987 113679 11.347 11.659 106 2833475 2834226 300427102 8.5147588372815e+14
518	216786 2780 104987 113959 11.347 11.687 107 2833474 2834226 303259825 8.5950020219338e+14
519	219566 2774 104987 113959 11.347 11.687 107 0 2984239 308658528 8.9898444376103e+14
520	222340 3723 105285 113959 11.375 11.687 157 0 74460 5660338 280141639780
521	226063 2098 105353 113959 11.381 11.687 105 0 0 0 0
528	228161 2136 104987 113679 11.347 11.659 107 0 0 0 0
vector 600  LTECell.UETx.tcp  tcpRcvQueueBytes  ETV
vector 587  LTECell.UETx.tcp  "advertised window"  ETV
vector 586  LTECell.UETx.tcp  "receive window"  ETV
vector 589  LTECell.UETx.tcp  "sent ack"  ETV
vector 566  LTECell.UERx.tcp  "rcvd seq"  ETV
vector 567  LTECell.UERx.tcp  "rcvd ack"  ETV
vector 563  LTECell.UERx.tcp  "advertised window"  ETV
vector 561  LTECell.UERx.tcp  "send window"  ETV
vector 576  LTECell.UERx.tcp  tcpRcvQueueBytes  ETV
vector 562  LTECell.UERx.tcp  "receive window"  ETV
vector 565  LTECell.UERx.tcp  "sent ack"  ETV
vector 590  LTECell.UETx.tcp  "rcvd seq"  ETV
vector 591  LTECell.UETx.tcp  "rcvd ack"  ETV
vector 585  LTECell.UETx.tcp  "send window"  ETV
vector 588  LTECell.UETx.tcp  "sent seq"  ETV
vector 592  LTECell.UETx.tcp  "unacked bytes"  ETV
vector 568  LTECell.UERx.tcp  "unacked bytes"  ETV
vector 569  LTECell.UERx.tcp  "rcvd dupAcks"  ETV
vector 564  LTECell.UERx.tcp  "sent seq"  ETV
vector 604  LTECell.UETx.tcp  "measured RTT"  ETV
vector 605  LTECell.UETx.tcp  "smoothed RTT"  ETV
vector 606  LTECell.UETx.tcp  RTTVAR  ETV
vector 607  LTECell.UETx.tcp  RTO  ETV
vector 602  LTECell.UETx.tcp  cwnd  ETV
vector 593  LTECell.UETx.tcp  "rcvd dupAcks"  ETV
vector 580  LTECell.UERx.tcp  "measured RTT"  ETV
vector 581  LTECell.UERx.tcp  "smoothed RTT"  ETV
vector 582  LTECell.UERx.tcp  RTTVAR  ETV
vector 583  LTECell.UERx.tcp  RTO  ETV
vector 578  LTECell.UERx.tcp  cwnd  ETV
578	231725 5030 116898 131081 12.157 12.498 206 2920 302220 31429420 6347987932400
580	236755 192 116898 127216 12.157 12.409 8 0.034 0.043 0.286 0.010294
581	236947 252 116898 127216 12.157 12.409 8 0.00425 0.023961828113 0.118267203214 0.0020657934437796
582	237199 248 116898 127216 12.157 12.409 8 0.272601316334 0.6605 3.533485410575 1.6899706575568
583	237447 252 116898 127216 12.157 12.409 8 1.114367093449 2.64625 14.252208845514 27.408337413877
561	237699 5358 116163 131081 12.089 12.498 208 65535 1460000 302285535 4.4124549483622e+14
562	243057 5420 116163 130799 12.089 12.47 209 65535 1460000 303745535 4.4337709483622e+14
563	248477 5448 116163 130799 12.089 12.47 210 3084469 4479685 937943212 4.1930822138327e+15
564	253925 5320 116536 126760 12.123 12.403 205 3022251 3320091 650090055 2.0630770267604e+15
565	259245 5422 116163 130799 12.089 12.47 209 3018934 3019685 631113208 1.9057601982251e+15
566	264667 5411 116163 131081 12.089 12.498 210 3018933 3019685 634131390 1.9148696196808e+15
567	270078 5405 116163 131081 12.089 12.498 210 0 3320115 663072649 2.1052805054266e+15
568	275483 7470 116465 131081 12.117 12.498 311 0 148943 22861590 2273621113568
569	282953 4111 116533 131081 12.123 12.498 208 0 0 0 0
576	287064 4188 116163 130799 12.089 12.47 210 0 0 0 0
vector 648  LTECell.UETx.tcp  tcpRcvQueueBytes  ETV
vector 635  LTECell.UETx.tcp  "advertised window"  ETV
vector 634  LTECell.UETx.tcp  "receive window"  ETV
vector 637  LTECell.UETx.tcp  "sent ack"  ETV
vector 614  LTECell.UERx.tcp  "rcvd seq"  ETV
vector 615  LTECell.UERx.tcp  "rcvd ack"  ETV
vector 611  LTECell.UERx.tcp  "advertised window"  ETV
vector 609  LTECell.UERx.tcp  "send window"  ETV
vector 624  LTECell.UERx.tcp  tcpRcvQueueBytes  ETV
vector 610  LTECell.UERx.tcp  "receive window"  ETV
vector 613  LTECell.UERx.tcp  "sent ack"  ETV
vector 638  LTECell.UETx.tcp  "rcvd seq"  ETV
vector 639  LTECell.UETx.tcp  "rcvd ack"  ETV
vector 633  LTECell.UETx.tcp  "send window"  ETV
vector 636  LTECell.UETx.tcp  "sent seq"  ETV
vector 640  LTECell.UETx.tcp  "unacked bytes"  ETV
vector 616  LTECell.UERx.tcp  "unacked bytes"  ETV
vector 617  LTECell.UERx.tcp  "rcvd dupAcks"  ETV
vector 612  LTECell.UERx.tcp  "sent seq"  ETV
vector 652  LTECell.UETx.tcp  "measured RTT"  ETV
vector 653  LTECell.UETx.tcp  "smoothed RTT"  ETV
vector 654  LTECell.UETx.tcp  RTTVAR  ETV
vector 655  LTECell.UETx.tcp  RTO  ETV
vector 650  LTECell.UETx.tcp  cwnd  ETV
vector 641  LTECell.UETx.tcp  "rcvd dupAcks"  ETV
vector 628  LTECell.UERx.tcp  "measured RTT"  ETV
vector 629  LTECell.UERx.tcp  "smoothed RTT"  ETV
vector 630  LTECell.UERx.tcp  RTTVAR  ETV
vector 631  LTECell.UERx.tcp  RTO  ETV
vector 626  LTECell.UERx.tcp  cwnd  ETV
626	292680 2646 142238 150857 14.509 14.788 109 2920 160600 8911840 958652994400
628	295326 168 142238 149730 14.509 14.731 7 0.034 0.052 0.256 0.00964
629	295494 219 142238 149730 14.509 14.731 7 0.00425 0.022898339272 0.095711625101 0.0015552988424547
630	295713 215 142238 149730 14.509 14.731 7 0.310123588563 0.6605 3.262321594241 1.6165280990115
631	295928 219 142238 149730 14.509 14.731 7 1.263392693524 2.64625 13.144998002065 26.18414834797
609	296147 2877 141503 150857 14.441 14.788 111 65535 1460000 160665535 2.3448029483622e+14
610	299024 2894 141503 150575 14.441 14.76 112 65535 1460000 162125535 2.3661189483622e+14
611	301918 2922 141503 150575 14.441 14.76 113 3672419 5067635 569852214 2.8775548366268e+15
612	304840 2794 141876 148780 14.475 14.719 108 3610250 3766470 398342880 1.469455692534e+15
613	307634 2896 141503 150575 14.441 14.76 112 3606884 3607635 404054260 1.4576771882731e+15
614	310530 2930 141503 150857 14.441 14.788 113 3606883 3607635 407660392 1.470681375145e+15
615	313460 2924 141503 150857 14.441 14.788 113 0 3766666 413253126 1.5250529007965e+15
616	316384 3929 141805 150857 14.469 14.788 166 0 78840 6357151 333416807551
617	320313 2212 141873 150857 14.475 14.788 111 0 0 0 0
624	322525 2244 141503 150575 14.441 14.76 113 0 0 0 0
vector 696  LTECell.UETx.tcp  tcpRcvQueueBytes  ETV
vector 683  LTECell.UETx.tcp  "advertised window"  ETV
vector 682  LTECell.UETx.tcp  "receive window"  ETV
vector 685  LTECell.UETx.tcp  "sent ack"  ETV
vector 662  LTECell.UERx.tcp  "rcvd seq"  ETV
vector 663  LTECell.UERx.tcp  "rcvd ack"  ETV
vector 659  LTECell.UERx.tcp  "advertised window"  ETV
vector 657  LTECell.UERx.tcp  "send window"  ETV
vector 672  LTECell.UERx.tcp  tcpRcvQueueBytes  ETV
vector 658  LTECell.UERx.tcp  "receive window"  ETV
vector 661  LTECell.UERx.tcp  "sent ack"  ETV
vector 686  LTECell.UETx.tcp  "rcvd seq"  ETV
vector 687  LTECell.UETx.tcp  "rcvd ack"  ETV
vector 681  LTECell.UETx.tcp  "send window"  ETV
vector 684  LTECell.UETx.tcp  "sent seq"  ETV
vector 688  LTECell.UETx.tcp  "unacked bytes"  ETV
vector 664  LTECell.UERx.tcp  "unacked bytes"  ETV
vector 665  LTECell.UERx.tcp  "rcvd dupAcks"  ETV
vector 660  LTECell.UERx.tcp  "sent seq"  ETV
vector 700  LTECell.UETx.tcp  "measured RTT"  ETV
vector 701  LTECell.UETx.tcp  "smoothed RTT"  ETV
vector 702  LTECell.UETx.tcp  RTTVAR  ETV
vector 703  LTECell.UETx.tcp  RTO  ETV
vector 698  LTECell.UETx.tcp  cwnd  ETV
vector 689  LTECell.UETx.tcp  "rcvd dupAcks"  ETV
vector 676  LTECell.UERx.tcp  "measured RTT"  ETV
vector 677  LTECell.UERx.tcp  "smoothed RTT"  ETV
vector 678  LTECell.UERx.tcp  RTTVAR  ETV
vector 679  LTECell.UERx.tcp  RTO  ETV
vector 674  LTECell.UERx.tcp  cwnd  ETV
674	326197 2024 154968 161963 15.478 15.734 84 2920 124100 5334840 444084754400
676	328221 166 154968 161164 15.478 15.685 7 0.031 0.04 0.241 0.008341
677	328387 218 154968 161164 15.478 15.685 7 0.00425 0.020929589272 0.094492875101 0.0014976865468857
678	328605 214 154968 161164 15.478 15.685 7 0.308061088563 0.6605 3.261009094241 1.6157781691151
679	328819 218 154968 161164 15.478 15.685 7 1.253173943524 2.64625 13.138529252065 26.169077072345
657	329037 2229 154233 161963 15.41 15.734 86 65535 1460000 124165535 1.8119029483622e+14
658	331266 2253 154233 161683 15.41 15.706 87 65535 1460000 125625535 1.8332189483622e+14
659	333519 2280 154233 161683 15.41 15.706 88 3914692 5309908 464481388 2.4554293101332e+15
660	335799 2152 154604 159906 15.444 15.663 83 3852501 3972221 324725963 1.2705467470158e+15
661	337951 2255 154233 161683 15.41 15.706 87 3849157 3849908 334941161 1.2894894411541e+15
662	340206 2283 154233 161963 15.41 15.734 88 3849156 3849908 338789566 1.3042996610686e+15
663	342489 2277 154233 161963 15.41 15.734 88 0 3972524 340496034 1.3327313358725e+15
664	344766 3025 154533 161963 15.438 15.734 128 0 60162 3724005 149510406009
665	347791 1716 154601 161963 15.444 15.734 86 0 0 0 0
672	349507 1753 154233 161683 15.41 15.706 88 0 0 0 0
vector 744  LTECell.UETx.tcp  tcpRcvQueueBytes  ETV
vector 731  LTECell.UETx.tcp  "advertised window"  ETV
vector 730  LTECell.UETx.tcp  "receive window"  ETV
vector 733  LTECell.UETx.tcp  "sent ack"  ETV
vector 710  LTECell.UERx.tcp  "rcvd seq"  ETV
vector 711  LTECell.UERx.tcp  "rcvd ack"  ETV
vector 707  LTECell.UERx.tcp  "advertised window"  ETV
vector 705  LTECell.UERx.tcp  "send window"  ETV
vector 720  LTECell.UERx.tcp  tcpRcvQueueBytes  ETV
vector 706  LTECell.UERx.tcp  "receive window"  ETV
vector 709  LTECell.UERx.tcp  "sent ack"  ETV
vector 734  LTECell.UETx.tcp  "rcvd seq"  ETV
vector 735  LTECell.UETx.tcp  "rcvd ack"  ETV
vector 729  LTECell.UETx.tcp  "send window"  ETV
vector 732  LTECell.UETx.tcp  "sent seq"  ETV
vector 736  LTECell.UETx.tcp  "unacked bytes"  ETV
vector 712  LTECell.UERx.tcp  "unacked bytes"  ETV
vector 713  LTECell.UERx.tcp  "rcvd dupAcks"  ETV
vector 708  LTECell.UERx.tcp  "sent seq"  ETV
vector 748  LTECell.UETx.tcp  "measured RTT"  ETV
vector 749  LTECell.UETx.tcp  "smoothed RTT"  ETV
vector 750  LTECell.UETx.tcp  RTTVAR  ETV
vector 751  LTECell.UETx.tcp  RTO  ETV
vector 746  LTECell.UETx.tcp  cwnd  ETV
vector 737  LTECell.UETx.tcp  "rcvd dupAcks"  ETV
vector 724  LTECell.UERx.tcp  "measured RTT"  ETV
vector 725  LTECell.UERx.tcp  "smoothed RTT"  ETV
vector 726  LTECell.UERx.tcp  RTTVAR  ETV
vector 727  LTECell.UERx.tcp  RTO  ETV
vector 722  LTECell.UERx.tcp  cwnd  ETV
722	352688 3001 169712 178875 17.106 17.386 123 2920 181040 11313540 1371149568400
724	355689 167 169712 175603 17.106 17.306 7 0.031 0.034 0.234 0.00783
725	355856 218 169712 175603 17.106 17.306 7 0.00425 0.020163964272 0.092852250101 0.0014328807414095
726	356074 214 169712 175603 17.106 17.306 7 0.307404838563 0.6605 3.259477844241 1.6147617903085
727	356288 218 169712 175603 17.106 17.306 7 1.249783318524 2.64625 13.130763627065 26.148174179273
705	356506 3246 168979 178875 17.038 17.386 125 65535 1460000 181105535 2.6432269483622e+14
706	359752 3270 168979 178593 17.038 17.358 126 65535 1460000 182565535 2.6645429483622e+14
707	363022 3298 168979 178593 17.038 17.358 127 4321612 5716828 723246601 4.1226165519155e+15
708	366320 3168 169348 175254 17.072 17.301 122 4259501 4436161 530435382 2.3065659308182e+15
709	369488 3272 168979 178593 17.038 17.358 126 4256077 4256828 536359454 2.2831862219484e+15
710	372760 3300 168979 178875 17.038 17.386 127 4256076 4256828 540614779 2.3012940116745e+15
711	376060 3294 168979 178875 17.038 17.386 127 0 4436234 548003583 2.3837497781506e+15
712	379354 4443 169277 178875 17.066 17.386 187 0 89060 8108853 480316927025
713	383797 2498 169345 178875 17.072 17.386 125 0 0 0 0
720	386295 2536 168979 178593 17.038 17.358 127 0 0 0 0
vector 792  LTECell.UETx.tcp  tcpRcvQueueBytes  ETV
vector 779  LTECell.UETx.tcp  "advertised window"  ETV
vector 778  LTECell.UETx.tcp  "receive window"  ETV
vector 781  LTECell.UETx.tcp  "sent ack"  ETV
vector 758  LTECell.UERx.tcp  "rcvd seq"  ETV
vector 759  LTECell.UERx.tcp  "rcvd ack"  ETV
vector 755  LTECell.UERx.tcp  "advertised window"  ETV
vector 753  LTECell.UERx.tcp  "send window"  ETV
vector 768  LTECell.UERx.tcp  tcpRcvQueueBytes  ETV
vector 754  LTECell.UERx.tcp  "receive window"  ETV
vector 757  LTECell.UERx.tcp  "sent ack"  ETV
vector 782  LTECell.UETx.tcp  "rcvd seq"  ETV
vector 783  LTECell.UETx.tcp  "rcvd ack"  ETV
vector 777  LTECell.UETx.tcp  "send window"  ETV
vector 780  LTECell.UETx.tcp  "sent seq"  ETV
vector 784  LTECell.UETx.tcp  "unacked bytes"  ETV
vector 760  LTECell.UERx.tcp  "unacked bytes"  ETV
vector 761  LTECell.UERx.tcp  "rcvd dupAcks"  ETV
vector 756  LTECell.UERx.tcp  "sent seq"  ETV
vector 796  LTECell.UETx.tcp  "measured RTT"  ETV
vector 797  LTECell.UETx.tcp  "smoothed RTT"  ETV
vector 798  LTECell.UETx.tcp  RTTVAR  ETV
vector 799  LTECell.UETx.tcp  RTO  ETV
vector 794  LTECell.UETx.tcp  cwnd  ETV
vector 785  LTECell.UETx.tcp  "rcvd dupAcks"  ETV
vector 772  LTECell.UERx.tcp  "measured RTT"  ETV
vector 773  LTECell.UERx.tcp  "smoothed RTT"  ETV
vector 774  LTECell.UERx.tcp  RTTVAR  ETV
vector 775  LTECell.UERx.tcp  RTO  ETV
vector 770  LTECell.UERx.tcp  cwnd  ETV
770	390259 11423 182878 210654 18.056 18.508 460 2920 673060 155475400 69839166868000
772	401682 213 182878 202823 18.056 18.403 9 0.034 0.082 0.381 0.017999
773	401895 283 182878 202823 18.056 18.403 9 0.00425 0.032084690228 0.156407168404 0.0033289629450787
774	402178 279 182878 202823 18.056 18.403 9 0.246062406928 0.6605 3.784240673337 1.7540187221028
775	402457 282 182878 202823 18.056 18.403 9 1.01633431794 2.64625 15.293369861752 28.515744134203
753	402739 12005 182145 210654 17.988 18.508 462 65535 1460000 673125535 9.8267189483622e+14
754	414744 12026 182145 210320 17.988 18.484 463 65535 1460000 674585535 9.8480349483622e+14
755	426770 12054 182145 210320 17.988 18.484 464 4559158 5954374 2760038644 1.6421577581441e+16
756	438824 11924 182516 200351 18.022 18.379 459 4497001 5165681 2217585519 1.0731089358867e+16
757	450748 12028 182145 210320 17.988 18.484 463 4493623 4494374 2080893951 9.3523102280092e+15
758	462776 12059 182145 210654 17.988 18.508 464 4493622 4494374 2085386822 9.3724961167023e+15
759	474835 12053 182145 210654 17.988 18.508 464 0 5166448 2237581862 1.0831388911005e+16
760	486888 17041 182445 210654 18.016 18.508 692 0 335106 115189141 25713535613481
761	503929 9235 182513 210654 18.022 18.508 462 0 0 0 0
768	513164 9270 182145 210320 17.988 18.484 464 0 0 0 0
vector 840  LTECell.UETx.tcp  tcpRcvQueueBytes  ETV
vector 827  LTECell.UETx.tcp  "advertised window"  ETV
vector 826  LTECell.UETx.tcp  "receive window"  ETV
vector 829  LTECell.UETx.tcp  "sent ack"  ETV
vector 806  LTECell.UERx.tcp  "rcvd seq"  ETV
vector 807  LTECell.UERx.tcp  "rcvd ack"  ETV
vector 803  LTECell.UERx.tcp  "advertised window"  ETV
vector 801  LTECell.UERx.tcp  "send window"  ETV
vector 816  LTECell.UERx.tcp  tcpRcvQueueBytes  ETV
vector 802  LTECell.UERx.tcp  "receive window"  ETV
vector 805  LTECell.UERx.tcp  "sent ack"  ETV
vector 830  LTECell.UETx.tcp  "rcvd seq"  ETV
vector 831  LTECell.UETx.tcp  "rcvd ack"  ETV
vector 825  LTECell.UETx.tcp  "send window"  ETV
vector 828  LTECell.UETx.tcp  "sent seq"  ETV
vector 832  LTECell.UETx.tcp  "unacked bytes"  ETV
vector 808  LTECell.UERx.tcp  "unacked bytes"  ETV
vector 809  LTECell.UERx.tcp  "rcvd dupAcks"  ETV
vector 804  LTECell.UERx.tcp  "sent seq"  ETV
vector 844  LTECell.UETx.tcp  "measured RTT"  ETV
vector 845  LTECell.UETx.tcp  "smoothed RTT"  ETV
vector 846  LTECell.UETx.tcp  RTTVAR  ETV
vector 847  LTECell.UETx.tcp  RTO  ETV
vector 842  LTECell.UETx.tcp  cwnd  ETV
vector 833  LTECell.UETx.tcp  "rcvd dupAcks"  ETV
vector 820  LTECell.UERx.tcp  "measured RTT"  ETV
vector 821  LTECell.UERx.tcp  "smoothed RTT"  ETV
vector 822  LTECell.UERx.tcp  RTTVAR  ETV
vector 823  LTECell.UERx.tcp  RTO  ETV
vector 818  LTECell.UERx.tcp  cwnd  ETV
818	523862 2023 227608 234763 21.586 21.854 84 2920 124100 5334840 444084754400
820	525885 167 227608 234136 21.586 21.809 7 0.033 0.053 0.257 0.009747
821	526052 218 227608 234136 21.586 21.809 7 0.00425 0.023037011147 0.095740921976 0.0015581300336927
822	526270 214 227608 234136 21.586 21.809 7 0.310273979188 0.6605 3.262378234866 1.6165439878048
823	526484 218 227608 234136 21.586 21.809 7 1.264132927899 2.64625 13.14525386144 26.184411984061
801	526702 2229 226873 234763 21.518 21.854 86 65535 1460000 124165535 1.8119029483622e+14
802	528931 2252 226873 234481 21.518 21.826 87 65535 1460000 125625535 1.8332189483622e+14
803	531183 2280 226873 234481 21.518 21.826 88 5441717 6836933 598859588 4.0791775640096e+15
804	533463 2150 227244 232843 21.552 21.779 83 5379501 5499221 451466963 2.4557933450178e+15
805	535613 2254 226873 234481 21.518 21.826 87 5376182 5376933 467792336 2.5152835594105e+15
806	537867 2283 226873 234763 21.518 21.854 88 5376181 5376933 473167766 2.5441788059659e+15
807	540150 2277 226873 234763 21.518 21.854 88 0 5500511 473347995 2.5754992178082e+15
808	542427 3025 227173 234763 21.546 21.854 128 0 61149 3765459 152057795763
809	545452 1715 227241 234763 21.552 21.854 86 0 0 0 0
816	547167 1752 226873 234481 21.518 21.826 88 0 0 0 0
vector 888  LTECell.UETx.tcp  tcpRcvQueueBytes  ETV
vector 875  LTECell.UETx.tcp  "advertised window"  ETV
vector 874  LTECell.UETx.tcp  "receive window"  ETV
vector 877  LTECell.UETx.tcp  "sent ack"  ETV
vector 854  LTECell.UERx.tcp  "rcvd seq"  ETV
vector 855  LTECell.UERx.tcp  "rcvd ack"  ETV
vector 851  LTECell.UERx.tcp  "advertised window"  ETV
vector 849  LTECell.UERx.tcp  "send window"  ETV
vector 864  LTECell.UERx.tcp  tcpRcvQueueBytes  ETV
vector 850  LTECell.UERx.tcp  "receive window"  ETV
vector 853  LTECell.UERx.tcp  "sent ack"  ETV
vector 878  LTECell.UETx.tcp  "rcvd seq"  ETV
vector 879  LTECell.UETx.tcp  "rcvd ack"  ETV
vector 873  LTECell.UETx.tcp  "send window"  ETV
vector 876  LTECell.UETx.tcp  "sent seq"  ETV
vector 880  LTECell.UETx.tcp  "unacked bytes"  ETV
vector 856  LTECell.UERx.tcp  "unacked bytes"  ETV
vector 857  LTECell.UERx.tcp  "rcvd dupAcks"  ETV
vector 852  LTECell.UERx.tcp  "sent seq"  ETV
vector 892  LTECell.UETx.tcp  "measured RTT"  ETV
vector 893  LTECell.UETx.tcp  "smoothed RTT"  ETV
vector 894  LTECell.UETx.tcp  RTTVAR  ETV
vector 895  LTECell.UETx.tcp  RTO  ETV
vector 890  LTECell.UETx.tcp  cwnd  ETV
vector 881  LTECell.UETx.tcp  "rcvd dupAcks"  ETV
vector 868  LTECell.UERx.tcp  "measured RTT"  ETV
vector 869  LTECell.UERx.tcp  "smoothed RTT"  ETV
vector 870  LTECell.UERx.tcp  RTTVAR  ETV
vector 871  LTECell.UERx.tcp  RTO  ETV
vector 866  LTECell.UERx.tcp  cwnd  ETV
866	550347 11694 257590 286012 26.053 26.515 472 2920 690580 163666000 75429965716800
868	562041 214 257590 276218 26.053 26.389 9 0.034 0.063 0.37 0.016086
869	562255 283 257590 276218 26.053 26.389 9 0.00425 0.030657822744 0.155395240802 0.0032690888885119
870	562538 279 257590 276218 26.053 26.389 9 0.244568551451 0.6605 3.783282721791 1.7534738785079
871	562817 283 257590 276218 26.053 26.389 9 1.008932028548 2.64625 15.288526127966 28.504285020919
849	563100 12288 256855 286012 25.985 26.515 474 65535 1460000 690645535 1.0082510948362e+15
850	575388 12338 256855 285674 25.985 26.491 475 65535 1460000 692105535 1.0103826948362e+15
851	587726 12366 256855 285674 25.985 26.491 476 6558424 7953640 3783141736 3.0071442846802e+16
852	600092 12236 257228 276197 26.019 26.389 471 6496251 7182451 3221334321 2.2050396419817e+16
853	612328 12340 256855 285674 25.985 26.491 475 6492889 6493640 3084477777 2.0029480330681e+16
854	624668 12342 256855 286012 25.985 26.515 476 6492888 6493640 3090969914 2.0071628172378e+16
855	637010 12336 256855 286012 25.985 26.515 476 0 7183567 3249381271 2.2247408572669e+16
856	649346 17463 257157 286012 26.013 26.515 710 0 344215 121377441 27813324353101
857	666809 9446 257225 286012 26.019 26.515 474 0 0 0 0
864	676255 9510 256855 285674 25.985 26.491 476 0 0 0 0
vector 936  LTECell.UETx.tcp  tcpRcvQueueBytes  ETV
vector 923  LTECell.UETx.tcp  "advertised window"  ETV
vector 922  LTECell.UETx.tcp  "receive window"  ETV
vector 925  LTECell.UETx.tcp  "sent ack"  ETV
vector 902  LTECell.UERx.tcp  "rcvd seq"  ETV
vector 903  LTECell.UERx.tcp  "rcvd ack"  ETV
vector 899  LTECell.UERx.tcp  "advertised window"  ETV
vector 897  LTECell.UERx.tcp  "send window"  ETV
vector 912  LTECell.UERx.tcp  tcpRcvQueueBytes  ETV
vector 898  LTECell.UERx.tcp  "receive window"  ETV
vector 901  LTECell.UERx.tcp  "sent ack"  ETV
vector 926  LTECell.UETx.tcp  "rcvd seq"  ETV
vector 927  LTECell.UETx.tcp  "rcvd ack"  ETV
vector 921  LTECell.UETx.tcp  "send window"  ETV
vector 924  LTECell.UETx.tcp  "sent seq"  ETV
vector 928  LTECell.UETx.tcp  "unacked bytes"  ETV
vector 904  LTECell.UERx.tcp  "unacked bytes"  ETV
vector 905  LTECell.UERx.tcp  "rcvd dupAcks"  ETV
vector 900  LTECell.UERx.tcp  "sent seq"  ETV
vector 940  LTECell.UETx.tcp  "measured RTT"  ETV
vector 941  LTECell.UETx.tcp  "smoothed RTT"  ETV
vector 942  LTECell.UETx.tcp  RTTVAR  ETV
vector 943  LTECell.UETx.tcp  RTO  ETV
vector 938  LTECell.UETx.tcp  cwnd  ETV
vector 929  LTECell.UETx.tcp  "rcvd dupAcks"  ETV
vector 916  LTECell.UERx.tcp  "measured RTT"  ETV
vector 917  LTECell.UERx.tcp  "smoothed RTT"  ETV
vector 918  LTECell.UERx.tcp  RTTVAR  ETV
vector 919  LTECell.UERx.tcp  RTO  ETV
vector 914  LTECell.UERx.tcp  cwnd  ETV
914	687193 1115 288310 293043 26.859 27.082 47 2920 70080 1715500 81049826800
916	688308 144 288310 292191 26.859 27.028 6 0.033 0.034 0.203 0.006869
917	688452 186 288310 292191 26.859 27.028 6 0.00425 0.018615959168 0.072688285829 0.001026295286247
918	688638 182 288310 292191 26.859 27.028 6 0.34955066681 0.6605 2.952073005678 1.5202640555366
919	688820 186 288310 292191 26.859 27.028 6 1.416818626408 2.64625 11.880980308541 24.586215836012
897	689006 1264 287575 293043 26.791 27.082 49 65535 1460000 70145535 1.0232109483622e+14
898	690270 1282 287575 292761 26.791 27.054 50 65535 1460000 71605535 1.0445269483622e+14
899	691552 1310 287575 292761 26.791 27.054 51 6759812 8155028 413115949 3.3501089523365e+15
900	692862 1180 287944 291308 26.825 27.006 46 6697751 6763451 309607646 2.0838628137222e+15
901	694042 1284 287575 292761 26.791 27.054 50 6694277 6695028 334750602 2.2411593113386e+15
902	695326 1318 287575 293043 26.791 27.082 51 6694276 6695028 341444127 2.2859625871347e+15
903	696644 1312 287575 293043 26.791 27.082 51 0 6763714 336596537 2.2659661363468e+15
904	697956 1696 287873 293043 26.819 27.082 73 0 33580 1147747 25591016333
905	699652 972 287941 293043 26.825 27.082 49 0 0 0 0
912	700624 1004 287575 292761 26.791 27.054 51 0 0 0 0
vector 984  LTECell.UETx.tcp  tcpRcvQueueBytes  ETV
vector 971  LTECell.UETx.tcp  "advertised window"  ETV
vector 970  LTECell.UETx.tcp  "receive window"  ETV
vector 973  LTECell.UETx.tcp  "sent ack"  ETV
vector 950  LTECell.UERx.tcp  "rcvd seq"  ETV
vector 951  LTECell.UERx.tcp  "rcvd ack"  ETV
vector 947  LTECell.UERx.tcp  "advertised window"  ETV
vector 945  LTECell.UERx.tcp  "send window"  ETV
vector 960  LTECell.UERx.tcp  tcpRcvQueueBytes  ETV
vector 946  LTECell.UERx.tcp  "receive window"  ETV
vector 949  LTECell.UERx.tcp  "sent ack"  ETV
vector 974  LTECell.UETx.tcp  "rcvd seq"  ETV
vector 975  LTECell.UETx.tcp  "rcvd ack"  ETV
vector 969  LTECell.UETx.tcp  "send window"  ETV
vector 972  LTECell.UETx.tcp  "sent seq"  ETV
vector 976  LTECell.UETx.tcp  "unacked bytes"  ETV
vector 952  LTECell.UERx.tcp  "unacked bytes"  ETV
vector 953  LTECell.UERx.tcp  "rcvd dupAcks"  ETV
vector 948  LTECell.UERx.tcp  "sent seq"  ETV
vector 988  LTECell.UETx.tcp  "measured RTT"  ETV
vector 989  LTECell.UETx.tcp  "smoothed RTT"  ETV
vector 990  LTECell.UETx.tcp  RTTVAR  ETV
vector 991  LTECell.UETx.tcp  RTO  ETV
vector 986  LTECell.UETx.tcp  cwnd  ETV
vector 977  LTECell.UETx.tcp  "rcvd dupAcks"  ETV
vector 964  LTECell.UERx.tcp  "measured RTT"  ETV
vector 965  LTECell.UERx.tcp  "smoothed RTT"  ETV
vector 966  LTECell.UERx.tcp  RTTVAR  ETV
vector 967  LTECell.UERx.tcp  RTO  ETV
vector 962  LTECell.UERx.tcp  cwnd  ETV
962	703056 12014 295890 325139 27.535 28.003 485 2920 709560 172776400 81814921988000
964	715070 213 295890 315387 27.535 27.878 9 0.028 0.073 0.377 0.017575
965	715283 282 295890 315387 27.535 27.878 9 0.00425 0.03186061205 0.153975715655 0.0032560389069137
966	715565 278 295890 315387 27.535 27.878 9 0.24599170819 0.6605 3.782942939077 1.7526117626609
967	715843 282 295890 315387 27.535 27.878 9 1.01582744481 2.64625 15.285747471963 28.484510671436
945	716125 12621 295155 325139 27.467 28.003 487 65535 1460000 709625535 1.0359618948362e+15
946	728746 12608 295155 324800 27.467 27.979 488 65535 1460000 711085535 1.0380934948362e+15
947	741354 12636 295155 324800 27.467 27.979 489 6928795 8324011 4067650462 3.3839828821409e+16
948	753990 12506 295528 314542 27.501 27.874 484 6866751 7571931 3494161044 2.5245680049858e+16
949	766496 12610 295155 324800 27.467 27.979 488 6863260 6864011 3349636132 2.2991930772692e+16
950	779106 12675 295155 325139 27.467 28.003 489 6863259 6864011 3356498640 2.3039024787613e+16
951	791781 12669 295155 325139 27.467 28.003 489 0 7572046 3523743931 2.5464839930744e+16
952	804450 17922 295457 325139 27.495 28.003 730 0 353320 128106089 30157626091913
953	822372 9701 295525 325139 27.501 28.003 487 0 0 0 0
960	832073 9702 295155 324800 27.467 27.979 489 0 0 0 0
vector 1032  LTECell.UETx.tcp  tcpRcvQueueBytes  ETV
vector 1019  LTECell.UETx.tcp  "advertised window"  ETV
vector 1018  LTECell.UETx.tcp  "receive window"  ETV
vector 1021  LTECell.UETx.tcp  "sent ack"  ETV
vector 998  LTECell.UERx.tcp  "rcvd seq"  ETV
vector 999  LTECell.UERx.tcp  "rcvd ack"  ETV
vector 995  LTECell.UERx.tcp  "advertised window"  ETV
vector 993  LTECell.UERx.tcp  "send window"  ETV
vector 1008  LTECell.UERx.tcp  tcpRcvQueueBytes  ETV
vector 994  LTECell.UERx.tcp  "receive window"  ETV
vector 997  LTECell.UERx.tcp  "sent ack"  ETV
vector 1022  LTECell.UETx.tcp  "rcvd seq"  ETV
vector 1023  LTECell.UETx.tcp  "rcvd ack"  ETV
vector 1017  LTECell.UETx.tcp  "send window"  ETV
vector 1020  LTECell.UETx.tcp  "sent seq"  ETV
vector 1024  LTECell.UETx.tcp  "unacked bytes"  ETV
vector 1000  LTECell.UERx.tcp  "unacked bytes"  ETV
vector 1001  LTECell.UERx.tcp  "rcvd dupAcks"  ETV
vector 996  LTECell.UERx.tcp  "sent seq"  ETV
vector 1036  LTECell.UETx.tcp  "measured RTT"  ETV
vector 1037  LTECell.UETx.tcp  "smoothed RTT"  ETV
vector 1038  LTECell.UETx.tcp  RTTVAR  ETV
vector 1039  LTECell.UETx.tcp  RTO  ETV
vector 1034  LTECell.UETx.tcp  cwnd  ETV
vector 1025  LTECell.UETx.tcp  "rcvd dupAcks"  ETV
vector 1012  LTECell.UERx.tcp  "measured RTT"  ETV
vector 1013  LTECell.UERx.tcp  "smoothed RTT"  ETV
vector 1014  LTECell.UERx.tcp  RTTVAR  ETV
vector 1015  LTECell.UERx.tcp  RTO  ETV
vector 1010  LTECell.UERx.tcp  cwnd  ETV
1010	843226 2263 330966 338399 29.011 29.281 90 2920 132860 6110100 544293402000
1012	845489 175 330966 337603 29.011 29.235 7 0.034 0.043 0.258 0.009606
1013	845664 226 330966 337603 29.011 29.235 7 0.00425 0.022771386147 0.098600296976 0.0016524419583615
1014	845890 222 330966 337603 29.011 29.235 7 0.309662651063 0.6605 3.264532531741 1.6183873000528
1015	846112 226 330966 337603 29.011 29.235 7 1.261421990399 2.64625 13.15673042394 26.223544526954
993	846338 2385 330181 338399 28.935 29.281 92 65535 1460000 132925535 1.9397989483622e+14
994	848723 2406 330181 338119 28.935 29.253 93 65535 1460000 134385535 1.9611149483622e+14
995	851129 2434 330181 338119 28.935 29.253 94 7295982 8691198 814182090 7.0558580283919e+15
996	853563 2304 330604 336411 28.977 29.217 89 7233751 7362231 649521199 4.7403250747952e+15
997	855867 2408 330181 338119 28.935 29.253 93 7230447 7231198 672500573 4.862978717603e+15
998	858275 2439 330181 338399 28.935 29.281 94 7230446 7231198 679730268 4.9152472062665e+15
999	860714 2433 330181 338399 28.935 29.281 94 0 7362733 678843147 4.9552817105621e+15
1000	863147 3375 330479 338399 28.963 29.281 137 0 64741 4294506 185148084246
1001	866522 1927 330601 338399 28.977 29.281 92 0 0 0 0
1008	868449 1964 330181 338119 28.935 29.253 94 0 0 0 0
vector 1080  LTECell.UETx.tcp  tcpRcvQueueBytes  ETV
vector 1067  LTECell.UETx.tcp  "advertised window"  ETV
vector 1066  LTECell.UETx.tcp  "receive window"  ETV
vector 1069  LTECell.UETx.tcp  "sent ack"  ETV
vector 1046  LTECell.UERx.tcp  "rcvd seq"  ETV
vector 1047  LTECell.UERx.tcp  "rcvd ack"  ETV
vector 1043  LTECell.UERx.tcp  "advertised window"  ETV
vector 1041  LTECell.UERx.tcp  "send window"  ETV
vector 1056  LTECell.UERx.tcp  tcpRcvQueueBytes  ETV
vector 1042  LTECell.UERx.tcp  "receive window"  ETV
vector 1045  LTECell.UERx.tcp  "sent ack"  ETV
vector 1070  LTECell.UETx.tcp  "rcvd seq"  ETV
vector 1071  LTECell.UETx.tcp  "rcvd ack"  ETV
vector 1065  LTECell.UETx.tcp  "send window"  ETV
vector 1068  LTECell.UETx.tcp  "sent seq"  ETV
vector 1072  LTECell.UETx.tcp  "unacked bytes"  ETV
vector 1048  LTECell.UERx.tcp  "unacked bytes"  ETV
vector 1049  LTECell.UERx.tcp  "rcvd dupAcks"  ETV
vector 1044  LTECell.UERx.tcp  "sent seq"  ETV
vector 1084  LTECell.UETx.tcp  "measured RTT"  ETV
vector 1085  LTECell.UETx.tcp  "smoothed RTT"  ETV
vector 1086  LTECell.UETx.tcp  RTTVAR  ETV
vector 1087  LTECell.UETx.tcp  RTO  ETV
vector 1082  LTECell.UETx.tcp  cwnd  ETV
vector 1073  LTECell.UETx.tcp  "rcvd dupAcks"  ETV
vector 1060  LTECell.UERx.tcp  "measured RTT"  ETV
vector 1061  LTECell.UERx.tcp  "smoothed RTT"  ETV
vector 1062  LTECell.UERx.tcp  RTTVAR  ETV
vector 1063  LTECell.UERx.tcp  RTO  ETV
vector 1058  LTECell.UERx.tcp  cwnd  ETV
1058	871871 9607 350554 373841 31.479 31.914 374 2920 547500 102928540 37619540468400
1060	881478 225 350554 369460 31.479 31.817 9 0.034 0.088 0.372 0.017912
1061	881703 294 350554 369460 31.479 31.817 9 0.00425 0.031101365224 0.154290443438 0.00329919992196
1062	881997 290 350554 369460 31.479 31.817 9 0.245044595153 0.6605 3.783498755728 1.7527283069614
1063	882287 294 350554 369460 31.479 31.817 9 1.011279745836 2.64625 15.28828546635 28.486477363234
1041	882581 10105 349819 373841 31.411 31.914 376 65535 1460000 547565535 7.9935429483622e+14
1042	892686 10087 349819 373559 31.411 31.886 377 65535 1460000 549025535 8.0148589483622e+14
1043	902773 10116 349819 373559 31.411 31.886 378 7914954 9310170 3516453454 3.2716689830904e+16
1044	912889 9981 350188 365268 31.445 31.78 373 7852750 8395870 3030367630 2.4628864276444e+16
1045	922870 10089 349819 373559 31.411 31.886 377 7849419 7850170 2959512965 2.3232671061577e+16
1046	932959 10161 349819 373841 31.411 31.914 378 7849418 7850170 2967361632 2.3294272634124e+16
1047	943120 10155 349819 373841 31.411 31.914 378 0 8397213 3063412017 2.490206948392e+16
1048	953275 14301 350117 373841 31.439 31.914 563 0 272902 76151975 13822095553709
1049	967576 7851 350185 373841 31.445 31.914 376 0 0 0 0
1056	975427 7848 349819 373559 31.411 31.886 378 0 0 0 0
vector 1128  LTECell.UETx.tcp  tcpRcvQueueBytes  ETV
vector 1115  LTECell.UETx.tcp  "advertised window"  ETV
vector 1114  LTECell.UETx.tcp  "receive window"  ETV
vector 1117  LTECell.UETx.tcp  "sent ack"  ETV
vector 1094  LTECell.UERx.tcp  "rcvd seq"  ETV
vector 1095  LTECell.UERx.tcp  "rcvd ack"  ETV
vector 1091  LTECell.UERx.tcp  "advertised window"  ETV
vector 1089  LTECell.UERx.tcp  "send window"  ETV
vector 1104  LTECell.UERx.tcp  tcpRcvQueueBytes  ETV
vector 1090  LTECell.UERx.tcp  "receive window"  ETV
vector 1093  LTECell.UERx.tcp  "sent ack"  ETV
vector 1118  LTECell.UETx.tcp  "rcvd seq"  ETV
vector 1119  LTECell.UETx.tcp  "rcvd ack"  ETV
vector 1113  LTECell.UETx.tcp  "send window"  ETV
vector 1116  LTECell.UETx.tcp  "sent seq"  ETV
vector 1120  LTECell.UETx.tcp  "unacked bytes"  ETV
vector 1096  LTECell.UERx.tcp  "unacked bytes"  ETV
vector 1097  LTECell.UERx.tcp  "rcvd dupAcks"  ETV
vector 1092  LTECell.UERx.tcp  "sent seq"  ETV
vector 1132  LTECell.UETx.tcp  "measured RTT"  ETV
vector 1133  LTECell.UETx.tcp  "smoothed RTT"  ETV
vector 1134  LTECell.UETx.tcp  RTTVAR  ETV
vector 1135  LTECell.UETx.tcp  RTO  ETV
vector 1130  LTECell.UETx.tcp  cwnd  ETV
vector 1121  LTECell.UETx.tcp  "rcvd dupAcks"  ETV
vector 1108  LTECell.UERx.tcp  "measured RTT"  ETV
vector 1109  LTECell.UERx.tcp  "smoothed RTT"  ETV
vector 1110  LTECell.UERx.tcp  RTTVAR  ETV
vector 1111  LTECell.UERx.tcp  RTO  ETV
vector 1106  LTECell.UERx.tcp  cwnd  ETV
1106	984733 889 379648 383613 32.922 33.127 36 2920 54020 1024920 37460738400
1108	985622 148 379648 383204 32.922 33.09 6 0.031 0.035 0.202 0.00681
1109	985770 190 379648 383204 32.922 33.09 6 0.00425 0.018461662293 0.072768363954 0.0010277421088606
1110	985960 187 379648 383204 32.922 33.09 6 0.349369026185 0.6605 2.952110115053 1.5203243473529
1111	986147 190 379648 383204 32.922 33.09 6 1.415937767033 2.64625 11.881208824166 24.587548866572
1089	986337 1018 378915 383613 32.854 33.127 38 65535 1460000 54085535 78873494836225
1090	987355 1049 378915 383333 32.854 33.099 39 65535 1460000 55545535 81005094836225
1091	988404 1078 378915 383333 32.854 33.099 40 8275543 9670759 384039892 3.6908645537662e+15
1092	989482 943 379284 382552 32.888 33.064 35 8213501 8263141 288341235 2.3754552612784e+15
1093	990425 1051 378915 383333 32.854 33.099 39 8210008 8210759 320218814 2.6292330477165e+15
1094	991476 1074 378915 383613 32.854 33.127 40 8210007 8210759 328428070 2.6966249306606e+15
1095	992550 1068 378915 383613 32.854 33.127 40 0 8263196 321344322 2.6477580513059e+15
1096	993618 1352 379213 383613 32.882 33.127 56 0 24874 646293 10822863129
1097	994970 792 379281 383613 32.888 33.127 38 0 0 0 0
1104	995762 838 378915 383333 32.854 33.099 40 0 0 0 0
vector 1176  LTECell.UETx.tcp  tcpRcvQueueBytes  ETV
vector 1163  LTECell.UETx.tcp  "advertised window"  ETV
vector 1162  LTECell.UETx.tcp  "receive window"  ETV
vector 1165  LTECell.UETx.tcp  "sent ack"  ETV
vector 1142  LTECell.UERx.tcp  "rcvd seq"  ETV
vector 1143  LTECell.UERx.tcp  "rcvd ack"  ETV
vector 1139  LTECell.UERx.tcp  "advertised window"  ETV
vector 1137  LTECell.UERx.tcp  "send window"  ETV
vector 1152  LTECell.UERx.tcp  tcpRcvQueueBytes  ETV
vector 1138  LTECell.UERx.tcp  "receive window"  ETV
vector 1141  LTECell.UERx.tcp  "sent ack"  ETV
vector 1166  LTECell.UETx.tcp  "rcvd seq"  ETV
vector 1167  LTECell.UETx.tcp  "rcvd ack"  ETV
vector 1161  LTECell.UETx.tcp  "send window"  ETV
vector 1164  LTECell.UETx.tcp  "sent seq"  ETV
vector 1168  LTECell.UETx.tcp  "unacked bytes"  ETV
vector 1144  LTECell.UERx.tcp  "unacked bytes"  ETV
vector 1145  LTECell.UERx.tcp  "rcvd dupAcks"  ETV
vector 1140  LTECell.UERx.tcp  "sent seq"  ETV
vector 1180  LTECell.UETx.tcp  "measured RTT"  ETV
vector 1181  LTECell.UETx.tcp  "smoothed RTT"  ETV
vector 1182  LTECell.UETx.tcp  RTTVAR  ETV
vector 1183  LTECell.UETx.tcp  RTO  ETV
vector 1178  LTECell.UETx.tcp  cwnd  ETV
vector 1169  LTECell.UETx.tcp  "rcvd dupAcks"  ETV
vector 1156  LTECell.UERx.tcp  "measured RTT"  ETV
vector 1157  LTECell.UERx.tcp  "smoothed RTT"  ETV
vector 1158  LTECell.UERx.tcp  RTTVAR  ETV
vector 1159  LTECell.UERx.tcp  RTO  ETV
vector 1154  LTECell.UERx.tcp  cwnd  ETV
1154	998058 47 387350 387683 33.74 33.773 2 2920 4380 7300 27710800
1156	998105 24 387350 387350 33.74 33.74 1 0.034 0.034 0.034 0.001156
1157	998129 26 387350 387350 33.74 33.74 1 0.00425 0.00425 0.00425 1.80625e-05
1158	998155 25 387350 387350 33.74 33.74 1 0.6605 0.6605 0.6605 0.43626025
1159	998180 26 387350 387350 33.74 33.74 1 2.64625 2.64625 2.64625 7.0026390625
1137	998206 103 386579 387683 33.672 33.773 4 65535 1460000 4445535 6399094836225
1138	998309 133 386579 387403 33.672 33.745 5 65535 1460000 5905535 8530694836225
1139	998442 162 386579 387403 33.672 33.745 6 8480174 9875390 56461906 5.3391997324739e+14
1140	998604 27 386950 386950 33.706 33.706 1 8418001 8418001 8418001 70862740836001
1141	998631 135 386579 387403 33.672 33.745 5 8414639 8415390 42076197 3.5408127124716e+14
1142	998766 159 386579 387683 33.672 33.773 6 8414638 8415390 50490084 4.2487476456643e+14
1143	998925 153 386579 387683 33.672 33.773 6 0 8419340 42094020 3.5438130610144e+14
1144	999078 105 386879 387683 33.7 33.773 5 0 1338 1339 1790245
1145	999183 83 386947 387683 33.706 33.773 4 0 0 0 0
1152	999266 126 386579 387403 33.672 33.745 6 0 0 0 0
vector 1224  LTECell.UETx.tcp  tcpRcvQueueBytes  ETV
vector 1211  LTECell.UETx.tcp  "advertised window"  ETV
vector 1210  LTECell.UETx.tcp  "receive window"  ETV
vector 1213  LTECell.UETx.tcp  "sent ack"  ETV
vector 1190  LTECell.UERx.tcp  "rcvd seq"  ETV
vector 1191  LTECell.UERx.tcp  "rcvd ack"  ETV
vector 1187  LTECell.UERx.tcp  "advertised window"  ETV
vector 1185  LTECell.UERx.tcp  "send window"  ETV
vector 1200  LTECell.UERx.tcp  tcpRcvQueueBytes  ETV
vector 1186  LTECell.UERx.tcp  "receive window"  ETV
vector 1189  LTECell.UERx.tcp  "sent ack"  ETV
vector 1214  LTECell.UETx.tcp  "rcvd seq"  ETV
vector 1215  LTECell.UETx.tcp  "rcvd ack"  ETV
vector 1209  LTECell.UETx.tcp  "send window"  ETV
vector 1212  LTECell.UETx.tcp  "sent seq"  ETV
vector 1216  LTECell.UETx.tcp  "unacked bytes"  ETV
vector 1192  LTECell.UERx.tcp  "unacked bytes"  ETV
vector 1193  LTECell.UERx.tcp  "rcvd dupAcks"  ETV
vector 1188  LTECell.UERx.tcp  "sent seq"  ETV
vector 1228  LTECell.UETx.tcp  "measured RTT"  ETV
vector 1229  LTECell.UETx.tcp  "smoothed RTT"  ETV
vector 1230  LTECell.UETx.tcp  RTTVAR  ETV
vector 1231  LTECell.UETx.tcp  RTO  ETV
vector 1226  LTECell.UETx.tcp  cwnd  ETV
vector 1217  LTECell.UETx.tcp  "rcvd dupAcks"  ETV
vector 1204  LTECell.UERx.tcp  "measured RTT"  ETV
vector 1205  LTECell.UERx.tcp  "smoothed RTT"  ETV
vector 1206  LTECell.UERx.tcp  RTTVAR  ETV
vector 1207  LTECell.UERx.tcp  RTO  ETV
vector 1202  LTECell.UERx.tcp  cwnd  ETV
1202	1000850 9177 388970 411585 33.933 34.34 357 2920 522680 93819600 32737918544800
1204	1010027 224 388970 410118 33.933 34.289 9 0.03 0.105 0.39 0.021498
1205	1010251 294 388970 410118 33.933 34.289 9 0.00425 0.034190720693 0.150664955157 0.0031645311534788
1206	1010545 290 388970 410118 33.933 34.289 9 0.248939126403 0.6605 3.780951880728 1.7509481216299
1207	1010835 294 388970 410118 33.933 34.289 9 1.029947226305 2.64625 15.274472478069 28.448246577817
1185	1011129 9658 388235 411585 33.865 34.34 359 65535 1460000 522745535 7.6311709483622e+14
1186	1020787 9694 388235 411166 33.865 34.308 360 65535 1460000 524205535 7.6524869483622e+14
1187	1030481 9723 388235 411166 33.865 34.308 361 8528382 9923598 3579628089 3.5498988731979e+16
1188	1040204 9588 388604 404805 33.899 34.235 356 8466251 8984551 3106242756 2.7111228049783e+16
1189	1049792 9696 388235 411166 33.865 34.308 360 8462847 8463598 3046894172 2.5787678043248e+16
1190	1059488 9714 388235 411585 33.865 34.34 361 8462846 8463598 3055356267 2.5859285093908e+16
1191	1069202 9708 388235 411585 33.865 34.34 361 0 8984738 3141663219 2.7425081970625e+16
1192	1078910 13693 388533 411585 33.893 34.34 538 0 259880 69291129 11996678195849
1193	1092603 7506 388601 411585 33.899 34.34 359 0 0 0 0
1200	1100109 7557 388235 411166 33.865 34.308 361 0 0 0 0
vector 1272  LTECell.UETx.tcp  tcpRcvQueueBytes  ETV
vector 1259  LTECell.UETx.tcp  "advertised window"  ETV
vector 1258  LTECell.UETx.tcp  "receive window"  ETV
vector 1261  LTECell.UETx.tcp  "sent ack"  ETV
vector 1238  LTECell.UERx.tcp  "rcvd seq"  ETV
vector 1239  LTECell.UERx.tcp  "rcvd ack"  ETV
vector 1235  LTECell.UERx.tcp  "advertised window"  ETV
vector 1233  LTECell.UERx.tcp  "send window"  ETV
vector 1248  LTECell.UERx.tcp  tcpRcvQueueBytes  ETV
vector 1234  LTECell.UERx.tcp  "receive window"  ETV
vector 1237  LTECell.UERx.tcp  "sent ack"  ETV
vector 1262  LTECell.UETx.tcp  "rcvd seq"  ETV
vector 1263  LTECell.UETx.tcp  "rcvd ack"  ETV
vector 1257  LTECell.UETx.tcp  "send window"  ETV
vector 1260  LTECell.UETx.tcp  "sent seq"  ETV
vector 1264  LTECell.UETx.tcp  "unacked bytes"  ETV
vector 1240  LTECell.UERx.tcp  "unacked bytes"  ETV
vector 1241  LTECell.UERx.tcp  "rcvd dupAcks"  ETV
vector 1236  LTECell.UERx.tcp  "sent seq"  ETV
vector 1276  LTECell.UETx.tcp  "measured RTT"  ETV
vector 1277  LTECell.UETx.tcp  "smoothed RTT"  ETV
vector 1278  LTECell.UETx.tcp  RTTVAR  ETV
vector 1279  LTECell.UETx.tcp  RTO  ETV
vector 1274  LTECell.UETx.tcp  cwnd  ETV
vector 1265  LTECell.UETx.tcp  "rcvd dupAcks"  ETV
vector 1252  LTECell.UERx.tcp  "measured RTT"  ETV
vector 1253  LTECell.UERx.tcp  "smoothed RTT"  ETV
vector 1254  LTECell.UERx.tcp  RTTVAR  ETV
vector 1255  LTECell.UERx.tcp  RTO  ETV
vector 1250  LTECell.UERx.tcp  cwnd  ETV
1250	1109124 4350 420506 432473 35.93 36.233 172 2920 252580 21973000 3710898176800
1252	1113474 199 420506 431666 35.93 36.193 8 0.034 0.049 0.297 0.011255
1253	1113673 259 420506 431666 35.93 36.193 8 0.00425 0.025162999988 0.120859000089 0.0021809723829051
1254	1113932 255 420506 431666 35.93 36.193 8 0.273642331959 0.6605 3.5358076762 1.6914032106326
1255	1114187 259 420506 431666 35.93 36.193 8 1.119732327824 2.64625 14.264089704889 27.438134083732
1233	1114446 4645 419773 432473 35.862 36.233 174 65535 1460000 252645535 3.6877109483622e+14
1234	1119091 4693 419773 432193 35.862 36.205 175 65535 1460000 254105535 3.7090269483622e+14
1235	1123784 4896 419773 432193 35.862 36.205 176 9027677 10422893 1831638564 1.9065779855722e+16
1236	1128680 4587 420144 428695 35.896 36.16 171 8965501 9213701 1554321771 1.4129052897775e+16
1237	1133267 4695 419773 432193 35.862 36.205 175 8962142 8962893 1568505352 1.4058337367717e+16
1238	1137962 4701 419773 432473 35.862 36.233 176 8962141 8962893 1577466742 1.413864387732e+16
1239	1142663 4695 419773 432473 35.862 36.233 176 0 9213725 1590928445 1.4464111254228e+16
1240	1147358 6443 420073 432473 35.89 36.233 260 0 124123 15886779 1317105363295
1241	1153801 3604 420141 432473 35.896 36.233 174 0 0 0 0
1248	1157405 3666 419773 432193 35.862 36.205 176 0 0 0 0
vector 1320  LTECell.UETx.tcp  tcpRcvQueueBytes  ETV
vector 1307  LTECell.UETx.tcp  "advertised window"  ETV
vector 1306  LTECell.UETx.tcp  "receive window"  ETV
vector 1309  LTECell.UETx.tcp  "sent ack"  ETV
vector 1286  LTECell.UERx.tcp  "rcvd seq"  ETV
vector 1287  LTECell.UERx.tcp  "rcvd ack"  ETV
vector 1283  LTECell.UERx.tcp  "advertised window"  ETV
vector 1281  LTECell.UERx.tcp  "send window"  ETV
vector 1296  LTECell.UERx.tcp  tcpRcvQueueBytes  ETV
vector 1282  LTECell.UERx.tcp  "receive window"  ETV
vector 1285  LTECell.UERx.tcp  "sent ack"  ETV
vector 1310  LTECell.UETx.tcp  "rcvd seq"  ETV
vector 1311  LTECell.UETx.tcp  "rcvd ack"  ETV
vector 1305  LTECell.UETx.tcp  "send window"  ETV
vector 1308  LTECell.UETx.tcp  "sent seq"  ETV
vector 1312  LTECell.UETx.tcp  "unacked bytes"  ETV
vector 1288  LTECell.UERx.tcp  "unacked bytes"  ETV
vector 1289  LTECell.UERx.tcp  "rcvd dupAcks"  ETV
vector 1284  LTECell.UERx.tcp  "sent seq"  ETV
vector 1324  LTECell.UETx.tcp  "measured RTT"  ETV
vector 1325  LTECell.UETx.tcp  "smoothed RTT"  ETV
vector 1326  LTECell.UETx.tcp  RTTVAR  ETV
vector 1327  LTECell.UETx.tcp  RTO  ETV
vector 1322  LTECell.UETx.tcp  cwnd  ETV
vector 1313  LTECell.UETx.tcp  "rcvd dupAcks"  ETV
vector 1300  LTECell.UERx.tcp  "measured RTT"  ETV
vector 1301  LTECell.UERx.tcp  "smoothed RTT"  ETV
vector 1302  LTECell.UERx.tcp  RTTVAR  ETV
vector 1303  LTECell.UERx.tcp  RTO  ETV
vector 1298  LTECell.UERx.tcp  cwnd  ETV
1298	1162529 5328 434304 448693 36.495 36.838 209 2920 306600 32344840 6627323454400
1300	1167857 199 434304 446394 36.495 36.775 8 0.033 0.061 0.314 0.01309
1301	1168056 260 434304 446394 36.495 36.775 8 0.00425 0.027346593738 0.122573843839 0.0022821363857728
1302	1168316 256 434304 446394 36.495 36.775 8 0.275864988209 0.6605 3.53771783245 1.6923290956363
1303	1168572 260 434304 446394 36.495 36.775 8 1.130806546574 2.64625 14.273445173639 27.456720994487
1281	1168832 5661 433569 448693 36.427 36.838 211 65535 1460000 306665535 4.4764029483622e+14
1282	1174493 5699 433569 448411 36.427 36.81 212 65535 1460000 308125535 4.4977189483622e+14
1283	1180192 5939 433569 448411 36.427 36.81 213 9168918 10564134 2247369901 2.3715929331634e+16
1284	1186131 5595 433938 442984 36.461 36.73 208 9106751 9408971 1925635088 1.7828860451214e+16
1285	1191726 5701 433569 448411 36.427 36.81 212 9103383 9104134 1930075448 1.7571656769298e+16
1286	1197427 5716 433569 448693 36.427 36.838 213 9103382 9104134 1939178079 1.765451465929e+16
1287	1203143 5710 433569 448693 36.427 36.838 213 0 9410316 1962972785 1.8177455469008e+16
1288	1208853 7923 433867 448693 36.455 36.838 316 0 151840 23750897 2407550626625
1289	1216776 4396 433935 448693 36.461 36.838 211 0 0 0 0
1296	1221172 4450 433569 448411 36.427 36.81 213 0 0 0 0
vector 1368  LTECell.UETx.tcp  tcpRcvQueueBytes  ETV
vector 1355  LTECell.UETx.tcp  "advertised window"  ETV
vector 1354  LTECell.UETx.tcp  "receive window"  ETV
vector 1357  LTECell.UETx.tcp  "sent ack"  ETV
vector 1334  LTECell.UERx.tcp  "rcvd seq"  ETV
vector 1335  LTECell.UERx.tcp  "rcvd ack"  ETV
vector 1331  LTECell.UERx.tcp  "advertised window"  ETV
vector 1329  LTECell.UERx.tcp  "send window"  ETV
vector 1344  LTECell.UERx.tcp  tcpRcvQueueBytes  ETV
vector 1330  LTECell.UERx.tcp  "receive window"  ETV
vector 1333  LTECell.UERx.tcp  "sent ack"  ETV
vector 1358  LTECell.UETx.tcp  "rcvd seq"  ETV
vector 1359  LTECell.UETx.tcp  "rcvd ack"  ETV
vector 1353  LTECell.UETx.tcp  "send window"  ETV
vector 1356  LTECell.UETx.tcp  "sent seq"  ETV
vector 1360  LTECell.UETx.tcp  "unacked bytes"  ETV
vector 1336  LTECell.UERx.tcp  "unacked bytes"  ETV
vector 1337  LTECell.UERx.tcp  "rcvd dupAcks"  ETV
vector 1332  LTECell.UERx.tcp  "sent seq"  ETV
vector 1372  LTECell.UETx.tcp  "measured RTT"  ETV
vector 1373  LTECell.UETx.tcp  "smoothed RTT"  ETV
vector 1374  LTECell.UETx.tcp  RTTVAR  ETV
vector 1375  LTECell.UETx.tcp  RTO  ETV
vector 1370  LTECell.UETx.tcp  cwnd  ETV
vector 1361  LTECell.UETx.tcp  "rcvd dupAcks"  ETV
vector 1348  LTECell.UERx.tcp  "measured RTT"  ETV
vector 1349  LTECell.UERx.tcp  "smoothed RTT"  ETV
vector 1350  LTECell.UERx.tcp  RTTVAR  ETV
vector 1351  LTECell.UERx.tcp  RTO  ETV
vector 1346  LTECell.UERx.tcp  cwnd  ETV
1346	1227080 2107 449716 456777 36.949 37.207 84 2920 124100 5334840 444084754400
1348	1229187 175 449716 455922 36.949 37.158 7 0.034 0.038 0.243 0.008449
1349	1229362 226 449716 455922 36.949 37.158 7 0.00425 0.021210839272 0.094524125101 0.0014998555628297
1350	1229588 222 449716 455922 36.949 37.158 7 0.308373588563 0.6605 3.261071594241 1.6157956546183
1351	1229810 226 449716 455922 36.949 37.158 7 1.254705193524 2.64625 13.138810502065 26.169365840708
1329	1230036 2315 448981 456777 36.881 37.207 86 65535 1460000 124165535 1.8119029483622e+14
1330	1232351 2341 448981 456497 36.881 37.179 87 65535 1460000 125625535 1.8332189483622e+14
1331	1234692 2456 448981 456497 36.881 37.179 88 9282329 10677545 936833444 9.9771786510252e+15
1332	1237148 2235 449354 454939 36.915 37.137 83 9220251 9339971 770249213 7.1480997479898e+15
1333	1239383 2343 448981 456497 36.881 37.179 87 9216794 9217545 801925580 7.3917774242151e+15
1334	1241726 2371 448981 456777 36.881 37.207 88 9216793 9217545 811141622 7.4767128532314e+15
1335	1244097 2365 448981 456777 36.881 37.207 88 0 9341100 807492762 7.4948811867584e+15
1336	1246462 3153 449283 456777 36.909 37.207 128 0 60988 3758697 151636678689
1337	1249615 1801 449351 456777 36.915 37.207 86 0 0 0 0
1344	1251416 1842 448981 456497 36.881 37.179 88 0 0 0 0
vector 1416  LTECell.UETx.tcp  tcpRcvQueueBytes  ETV
vector 1403  LTECell.UETx.tcp  "advertised window"  ETV
vector 1402  LTECell.UETx.tcp  "receive window"  ETV
vector 1405  LTECell.UETx.tcp  "sent ack"  ETV
vector 1382  LTECell.UERx.tcp  "rcvd seq"  ETV
vector 1383  LTECell.UERx.tcp  "rcvd ack"  ETV
vector 1379  LTECell.UERx.tcp  "advertised window"  ETV
vector 1377  LTECell.UERx.tcp  "send window"  ETV
vector 1392  LTECell.UERx.tcp  tcpRcvQueueBytes  ETV
vector 1378  LTECell.UERx.tcp  "receive window"  ETV
vector 1381  LTECell.UERx.tcp  "sent ack"  ETV
vector 1406  LTECell.UETx.tcp  "rcvd seq"  ETV
vector 1407  LTECell.UETx.tcp  "rcvd ack"  ETV
vector 1401  LTECell.UETx.tcp  "send window"  ETV
vector 1404  LTECell.UETx.tcp  "sent seq"  ETV
vector 1408  LTECell.UETx.tcp  "unacked bytes"  ETV
vector 1384  LTECell.UERx.tcp  "unacked bytes"  ETV
vector 1385  LTECell.UERx.tcp  "rcvd dupAcks"  ETV
vector 1380  LTECell.UERx.tcp  "sent seq"  ETV
vector 1420  LTECell.UETx.tcp  "measured RTT"  ETV
vector 1421  LTECell.UETx.tcp  "smoothed RTT"  ETV
vector 1422  LTECell.UETx.tcp  RTTVAR  ETV
vector 1423  LTECell.UETx.tcp  RTO  ETV
vector 1418  LTECell.UETx.tcp  cwnd  ETV
vector 1409  LTECell.UETx.tcp  "rcvd dupAcks"  ETV
vector 1396  LTECell.UERx.tcp  "measured RTT"  ETV
vector 1397  LTECell.UERx.tcp  "smoothed RTT"  ETV
vector 1398  LTECell.UERx.tcp  RTTVAR  ETV
vector 1399  LTECell.UERx.tcp  RTO  ETV
vector 1394  LTECell.UERx.tcp  cwnd  ETV
1394	1254716 6005 457916 473807 37.34 37.688 236 2920 346020 41174920 9518604378400
1396	1260721 195 457916 469579 37.34 37.6 8 0.034 0.05 0.294 0.011026
1397	1260916 256 457916 469579 37.34 37.6 8 0.00425 0.024937444568 0.119437888028 0.002119729967188
1398	1261172 253 457916 469579 37.34 37.6 8 0.273558500171 0.6605 3.534590055349 1.6906216734772
1399	1261425 256 457916 469579 37.34 37.6 8 1.119171445252 2.64625 14.257798109424 27.421794695781
1377	1261681 6363 457183 473807 37.272 37.688 238 65535 1460000 346085535 5.0519349483622e+14
1378	1268044 6419 457183 473525 37.272 37.66 239 65535 1460000 347545535 5.0732509483622e+14
1379	1274463 6686 457183 473525 37.272 37.66 240 9380194 10775410 2583307732 2.781002263197e+16
1380	1281149 6315 457554 469568 37.306 37.6 235 9318001 9659641 2229872935 2.1161170394412e+16
1381	1287464 6421 457183 473525 37.272 37.66 239 9314659 9315410 2226382003 2.0739651980821e+16
1382	1293885 6418 457183 473807 37.272 37.688 240 9314658 9315410 2235695910 2.0826400843296e+16
1383	1300303 6412 457183 473807 37.272 37.688 240 0 9659857 2268170505 2.1527934010189e+16
1384	1306715 8929 457483 473807 37.3 37.688 356 0 171035 30089691 3433051863551
1385	1315644 4938 457551 473807 37.306 37.688 238 0 0 0 0
1392	1320582 5008 457183 473525 37.272 37.66 240 0 0 0 0
vector 1464  LTECell.UETx.tcp  tcpRcvQueueBytes  ETV
vector 1451  LTECell.UETx.tcp  "advertised window"  ETV
[...]
2559	14793253 2637 879721 887844 70.802 71.123 95 17693593 17694344 1680961837 2.9743502078982e+16
2560	14795890 85 879725 887843 70.802 71.123 4 0 750 751 562501
2561	14795975 1951 880125 887844 70.836 71.123 94 0 0 0 0
2568	14797926 3889 879453 887844 70.774370109428 71.123 187 0 0 0 0
2570	14801815 48 880125 887843 70.836 71.123 2 2920 4380 7300 27710800
2572	14801863 25 880125 880125 70.836 70.836 1 0.034 0.034 0.034 0.001156
2573	14801888 27 880125 880125 70.836 70.836 1 0.00425 0.00425 0.00425 1.80625e-05
2574	14801915 26 880125 880125 70.836 70.836 1 0.6605 0.6605 0.6605 0.43626025
2575	14801941 27 880125 880125 70.836 70.836 1 2.64625 2.64625 2.64625 7.0026390625
2601	14801968 79 893375 919792 72.127 72.613 3 65535 1460000 2985535 4267494836225
2602	14802047 11271 893117 919793 72.099514779556 72.613 419 65535 1460000 610345535 8.9101309483622e+14
2603	14813318 11717 893117 919793 72.099514779556 72.613 420 65535 20091246 8290874082 1.6406717357609e+17
2604	14825035 28 893379 893379 72.127 72.127 1 18024879 18024879 18024879 3.2489626296464e+14
2605	14825063 11685 893117 919793 72.099514779556 72.613 419 0 18631246 7662434761 1.4047446588732e+17
2606	14836748 11655 893375 919793 72.127 72.613 418 18028250 18631245 7661831765 1.4045236035787e+17
2607	14848403 11655 893375 919793 72.127 72.613 418 18024879 18025630 7534712174 1.358179127877e+17
2608	14860058 86 893379 919792 72.127 72.613 4 0 750 751 562501
2609	14860144 8708 893777 919793 72.161 72.613 417 0 0 0 0
2616	14868852 17404 893117 919793 72.099514779556 72.613 833 0 0 0 0
2618	14886256 48 893777 919792 72.161 72.613 2 2920 4380 7300 27710800
2620	14886304 25 893777 893777 72.161 72.161 1 0.034 0.034 0.034 0.001156
2621	14886329 27 893777 893777 72.161 72.161 1 0.00425 0.00425 0.00425 1.80625e-05
2622	14886356 26 893777 893777 72.161 72.161 1 0.6605 0.6605 0.6605 0.43626025
2623	14886382 27 893777 893777 72.161 72.161 1 2.64625 2.64625 2.64625 7.0026390625
2649	14886409 79 924791 942859 73.483 73.898 3 65535 1460000 2985535 4267494836225
2650	14886488 7264 924533 942860 73.455435867375 73.898 270 65535 1460000 392805535 5.7340469483622e+14
2651	14893752 7561 924533 942860 73.455435867375 73.898 271 65535 20213404 5404258097 1.0817374073519e+17
2652	14901313 28 924795 924795 73.483 73.483 1 18363859 18363859 18363859 3.3723131737188e+14
2653	14901341 7529 924533 942860 73.455435867375 73.898 270 0 18753404 4993019776 9.2680950694716e+16
2654	14908870 7499 924791 942860 73.483 73.898 269 18367250 18753403 4992633622 9.2666616405691e+16
2655	14916369 7499 924791 942860 73.483 73.898 269 18363859 18364610 4940079073 9.0722606868562e+16
2656	14923868 86 924795 942859 73.483 73.898 4 0 750 751 562501
2657	14923954 5595 925231 942860 73.523 73.898 268 0 0 0 0
2664	14929549 11178 924533 942860 73.455435867375 73.898 535 0 0 0 0
2666	14940727 48 925231 942859 73.523 73.898 2 2920 4380 7300 27710800
2668	14940775 24 925231 925231 73.523 73.523 1 0.04 0.04 0.04 0.0016
2669	14940799 25 925231 925231 73.523 73.523 1 0.005 0.005 0.005 2.5e-05
2670	14940824 27 925231 925231 73.523 73.523 1 0.66125 0.66125 0.66125 0.4372515625
2671	14940851 24 925231 925231 73.523 73.523 1 2.65 2.65 2.65 7.0225
2697	14940875 79 955947 975176 76.319 76.746 3 65535 1460000 2985535 4267494836225
2698	14940954 7913 955689 975177 76.29172938904 76.746 294 65535 1460000 427845535 6.2456309483622e+14
2699	14948867 8234 955689 975177 76.29172938904 76.746 295 65535 20957666 6098352467 1.265005895324e+17
2700	14957101 28 955951 955951 76.319 76.319 1 19072933 19072933 19072933 3.6377677322249e+14
2701	14957129 8202 955689 975177 76.29172938904 76.746 294 0 19497666 5651365146 1.0900763223997e+17
2702	14965331 8173 955947 975177 76.319 76.746 293 19076250 19497665 5650943730 1.0899137657459e+17
2703	14973504 8173 955947 975177 76.319 76.746 293 19072933 19073684 5588588371 1.0659494873939e+17
2704	14981677 86 955951 975176 76.319 76.746 4 0 750 751 562501
2705	14981763 6101 956353 975177 76.353 76.746 292 0 0 0 0
2712	14987864 12189 955689 975177 76.29172938904 76.746 583 0 0 0 0
2714	15000053 48 956353 975176 76.353 76.746 2 2920 4380 7300 27710800
2716	15000101 25 956353 956353 76.353 76.353 1 0.034 0.034 0.034 0.001156
2717	15000126 27 956353 956353 76.353 76.353 1 0.00425 0.00425 0.00425 1.80625e-05
2718	15000153 26 956353 956353 76.353 76.353 1 0.6605 0.6605 0.6605 0.43626025
2719	15000179 27 956353 956353 76.353 76.353 1 2.64625 2.64625 2.64625 7.0026390625
2745	15000206 79 977393 986923 77.113 77.431 3 65535 1460000 2985535 4267494836225
2746	15000285 3306 977135 986924 77.08573712696 77.431 123 65535 1460000 178185535 2.6005949483622e+14
2747	15003591 3456 977135 986924 77.08573712696 77.431 124 65535 20906974 2559640490 5.3266111574381e+16
2748	15007047 28 977397 977397 77.113 77.113 1 19271435 19271435 19271435 3.7138820695922e+14
2749	15007075 3424 977135 986924 77.08573712696 77.431 123 0 19446974 2362114669 4.5734630583503e+16
2750	15010499 3395 977393 986924 77.113 77.431 122 19274750 19446973 2361942445 4.5727961773309e+16
2751	15013894 3395 977393 986924 77.113 77.431 122 19271435 19272186 2351205822 4.5312859159629e+16
2752	15017289 86 977397 986923 77.113 77.431 4 0 750 751 562501
2753	15017375 2520 977795 986924 77.147 77.431 121 0 0 0 0
2760	15019895 5027 977135 986924 77.08573712696 77.431 241 0 0 0 0
2762	15024922 48 977795 986923 77.147 77.431 2 2920 4380 7300 27710800
2764	15024970 25 977795 977795 77.147 77.147 1 0.034 0.034 0.034 0.001156
2765	15024995 27 977795 977795 77.147 77.147 1 0.00425 0.00425 0.00425 1.80625e-05
2766	15025022 26 977795 977795 77.147 77.147 1 0.6605 0.6605 0.6605 0.43626025
2767	15025048 27 977795 977795 77.147 77.147 1 2.64625 2.64625 2.64625 7.0026390625
2793	15025075 80 990923 1010935 78.148 78.577 3 65535 1460000 2985535 4267494836225
2794	15025155 8655 990663 1010936 78.120407112204 78.577 315 65535 1460000 458505535 6.6932669483622e+14
2795	15033810 8997 990663 1010936 78.120407112204 78.577 316 65535 21445427 6682906361 1.4178704631457e+17
2796	15042807 28 990927 990927 78.148 78.148 1 19530102 19530102 19530102 3.814248841304e+14
2797	15042835 8965 990663 1010936 78.120407112204 78.577 315 0 19985427 6204801790 1.226155761808e+17
2798	15051800 8935 990923 1010936 78.148 78.577 314 19533500 19985426 6204349863 1.2259771651068e+17
2799	15060735 8935 990923 1010936 78.148 78.577 314 19530102 19530853 6132686780 1.1977658325402e+17
2800	15069670 88 990927 1010935 78.148 78.577 4 0 750 751 562501
2801	15069758 6716 991325 1010936 78.182 78.577 313 0 0 0 0
2808	15076474 13418 990663 1010936 78.120407112204 78.577 625 0 0 0 0
2810	15089892 49 991325 1010935 78.182 78.577 2 2920 4380 7300 27710800
2812	15089941 25 991325 991325 78.182 78.182 1 0.034 0.034 0.034 0.001156
2813	15089966 27 991325 991325 78.182 78.182 1 0.00425 0.00425 0.00425 1.80625e-05
2814	15089993 26 991325 991325 78.182 78.182 1 0.6605 0.6605 0.6605 0.43626025
2815	15090019 27 991325 991325 78.182 78.182 1 2.64625 2.64625 2.64625 7.0026390625
2841	15090046 81 1013793 1018141 79.08 79.332 3 65535 1460000 2985535 4267494836225
2842	15090127 1068 1013537 1018142 79.052685221173 79.332 38 65535 1460000 54085535 78873494836225
2843	15091195 1133 1013537 1018142 79.052685221173 79.332 39 65535 21273347 806189524 1.7102918014983e+16
2844	15092328 28 1013797 1013797 79.08 79.08 1 19763172 19763172 19763172 3.9058296750158e+14
2845	15092356 1101 1013537 1018142 79.052685221173 79.332 38 0 19813347 732271953 1.4492500765482e+16
2846	15093457 1071 1013793 1018142 79.08 79.332 37 19766500 19813346 732225106 1.4490646568389e+16
2847	15094528 1071 1013793 1018142 79.08 79.332 37 19763172 19763923 731264366 1.4452637108152e+16
2848	15095599 89 1013797 1018141 79.08 79.332 4 0 750 751 562501
2849	15095688 791 1014197 1018142 79.114 79.332 36 0 0 0 0
2856	15096479 1567 1013537 1018142 79.052685221173 79.332 71 0 0 0 0
2858	15098046 50 1014197 1018141 79.114 79.332 2 2920 4380 7300 27710800
2860	15098096 26 1014197 1014197 79.114 79.114 1 0.034 0.034 0.034 0.001156
2861	15098122 28 1014197 1014197 79.114 79.114 1 0.00425 0.00425 0.00425 1.80625e-05
2862	15098150 27 1014197 1014197 79.114 79.114 1 0.6605 0.6605 0.6605 0.43626025
2863	15098177 28 1014197 1014197 79.114 79.114 1 2.64625 2.64625 2.64625 7.0026390625
2889	15098205 82 1018963 1042151 79.453 79.911 3 65535 1460000 2985535 4267494836225
2890	15098287 10168 1018705 1042152 79.42524197431 79.911 364 65535 1460000 530045535 7.7377509483622e+14
2891	15108455 10560 1018705 1042152 79.42524197431 79.911 365 65535 21842564 7854449931 1.6949297700484e+17
2892	15119015 29 1018967 1018967 79.453 79.453 1 19856311 19856311 19856311 3.9427308652872e+14
2893	15119044 10527 1018705 1042152 79.42524197431 79.911 364 0 20382564 7304479110 1.4699310588662e+17
2894	15129571 10497 1018963 1042152 79.453 79.911 363 19859750 20382563 7303956296 1.4697206664147e+17
2895	15140068 10497 1018963 1042152 79.453 79.911 363 19856311 19857062 7208112395 1.4313191266985e+17
2896	15150565 90 1018967 1042151 79.453 79.911 4 0 750 751 562501
2897	15150655 7934 1019365 1042152 79.487 79.911 362 0 0 0 0
2904	15158589 15854 1018705 1042152 79.42524197431 79.911 723 0 0 0 0
2906	15174443 50 1019365 1042151 79.487 79.911 2 2920 4380 7300 27710800
2908	15174493 26 1019365 1019365 79.487 79.487 1 0.034 0.034 0.034 0.001156
2909	15174519 28 1019365 1019365 79.487 79.487 1 0.00425 0.00425 0.00425 1.80625e-05
2910	15174547 27 1019365 1019365 79.487 79.487 1 0.6605 0.6605 0.6605 0.43626025
2911	15174574 28 1019365 1019365 79.487 79.487 1 2.64625 2.64625 2.64625 7.0026390625
2937	15174602 82 1046127 1052629 80.624 80.915 3 65535 1460000 2985535 4267494836225
2938	15174684 1959 1045869 1052630 80.59649051854 80.915 70 65535 1460000 100805535 1.4708469483622e+14
2939	15176643 2057 1045869 1052630 80.59649051854 80.915 71 65535 21707313 1514867374 3.2782465002472e+16
2940	15178700 29 1046131 1046131 80.624 80.624 1 20149123 20149123 20149123 4.0598715766913e+14
2941	15178729 2024 1045869 1052630 80.59649051854 80.915 70 0 20247313 1393843803 2.8156587423178e+16
2942	15180753 1994 1046127 1052630 80.624 80.915 69 20152500 20247312 1393748990 2.8152756995708e+16
2943	15182747 1994 1046127 1052630 80.624 80.915 69 20149123 20149874 1390340489 2.8015169208565e+16
2944	15184741 90 1046131 1052629 80.624 80.915 4 0 750 751 562501
2945	15184831 1489 1046531 1052630 80.658 80.915 68 0 0 0 0
2952	15186320 2964 1045869 1052630 80.59649051854 80.915 135 0 0 0 0
2954	15189284 50 1046531 1052629 80.658 80.915 2 2920 4380 7300 27710800
2956	15189334 26 1046531 1046531 80.658 80.658 1 0.034 0.034 0.034 0.001156
2957	15189360 28 1046531 1046531 80.658 80.658 1 0.00425 0.00425 0.00425 1.80625e-05
2958	15189388 27 1046531 1046531 80.658 80.658 1 0.6605 0.6605 0.6605 0.43626025
2959	15189415 28 1046531 1046531 80.658 80.658 1 2.64625 2.64625 2.64625 7.0026390625
2985	15189443 82 1053377 1054589 81.022 81.135 3 65535 1460000 2985535 4267494836225
2986	15189525 203 1053117 1054590 80.994393644965 81.135 7 65535 1460000 8825535 12793894836225
2987	15189728 238 1053117 1054590 80.994393644965 81.135 8 65535 21714725 150664707 3.241690686012e+15
2988	15189966 29 1053381 1053381 81.022 81.022 1 20248599 20248599 20248599 4.100057614628e+14
2989	15189995 205 1053117 1054590 80.994393644965 81.135 7 0 20254725 121521636 2.4612513449445e+15
2990	15190200 174 1053377 1054590 81.022 81.135 6 20252000 20254724 121518911 2.4611409641189e+15
2991	15190374 174 1053377 1054590 81.022 81.135 6 20248599 20249350 121495346 2.4601865170792e+15
2992	15190548 90 1053381 1054589 81.022 81.135 4 0 750 751 562501
2993	15190638 110 1053817 1054590 81.062 81.135 5 0 0 0 0
3000	15190748 207 1053117 1054590 80.994393644965 81.135 9 0 0 0 0
3002	15190955 50 1053817 1054589 81.062 81.135 2 2920 4380 7300 27710800
3004	15191005 25 1053817 1053817 81.062 81.062 1 0.04 0.04 0.04 0.0016
3005	15191030 26 1053817 1053817 81.062 81.062 1 0.005 0.005 0.005 2.5e-05
3006	15191056 28 1053817 1053817 81.062 81.062 1 0.66125 0.66125 0.66125 0.4372515625
3007	15191084 25 1053817 1053817 81.062 81.062 1 2.65 2.65 2.65 7.0225
3033	15191109 82 1060461 1079013 82.203 82.612 3 65535 1460000 2985535 4267494836225
3034	15191191 7886 1060199 1079014 82.175658188514 82.612 282 65535 1460000 410325535 5.9898389483622e+14
3035	15199077 8196 1060199 1079014 82.175658188514 82.612 283 65535 22410539 6261735674 1.3904376431964e+17
3036	15207273 29 1060465 1060465 82.203 82.203 1 20543915 20543915 20543915 4.2205244352722e+14
3037	15207302 8163 1060199 1079014 82.175658188514 82.612 282 0 20950539 5830797353 1.2099396520736e+17
3038	15215465 8132 1060461 1079014 82.203 82.612 281 20547250 20950538 5830394064 1.2097722960553e+17
3039	15223597 8132 1060461 1079014 82.203 82.612 281 20543915 20544666 5773050117 1.1860536531513e+17
3040	15231729 90 1060465 1079013 82.203 82.612 4 0 750 751 562501
3041	15231819 6143 1060863 1079014 82.237 82.612 280 0 0 0 0
3048	15237962 12273 1060199 1079014 82.175658188514 82.612 559 0 0 0 0
3050	15250235 50 1060863 1079013 82.237 82.612 2 2920 4380 7300 27710800
3052	15250285 26 1060863 1060863 82.237 82.237 1 0.034 0.034 0.034 0.001156
3053	15250311 28 1060863 1060863 82.237 82.237 1 0.00425 0.00425 0.00425 1.80625e-05
3054	15250339 27 1060863 1060863 82.237 82.237 1 0.6605 0.6605 0.6605 0.43626025
3055	15250366 28 1060863 1060863 82.237 82.237 1 2.64625 2.64625 2.64625 7.0026390625
3081	15250394 81 1082545 1115896 83.241 83.79 3 65535 1460000 2985535 4267494836225
3082	15250475 15306 1082283 1115897 83.213646227474 83.79 549 65535 1460000 800145535 1.1681210948362e+15
3083	15265781 15883 1082283 1115897 83.213646227474 83.79 550 65535 23060894 12441135956 2.8196364640286e+17
3084	15281664 29 1082549 1082549 83.241 83.241 1 20803412 20803412 20803412 4.3278195084174e+14
3085	15281693 15850 1082283 1115897 83.213646227474 83.79 549 0 21600894 11620118135 2.4642912803096e+17
3086	15297543 15819 1082545 1115897 83.241 83.79 548 20806750 21600893 11619323991 2.4639545025493e+17
3087	15313362 15819 1082545 1115897 83.241 83.79 548 20803412 20804163 11400680028 2.3718157865172e+17
3088	15329181 88 1082549 1115896 83.241 83.79 4 0 750 751 562501
3089	15329269 11961 1082947 1115897 83.275 83.79 547 0 0 0 0
3096	15341230 23911 1082283 1115897 83.213646227474 83.79 1093 0 0 0 0
3098	15365141 49 1082947 1115896 83.275 83.79 2 2920 4380 7300 27710800
3100	15365190 26 1082947 1082947 83.275 83.275 1 0.034 0.034 0.034 0.001156
3101	15365216 28 1082947 1082947 83.275 83.275 1 0.00425 0.00425 0.00425 1.80625e-05
3102	15365244 27 1082947 1082947 83.275 83.275 1 0.6605 0.6605 0.6605 0.43626025
3103	15365271 28 1082947 1082947 83.275 83.275 1 2.64625 2.64625 2.64625 7.0026390625
3129	15365299 82 1116732 1121811 83.863 84.095 3 65535 1460000 2985535 4267494836225
3130	15365381 1455 1116419 1121812 83.839193296623 84.095 52 65535 1460000 74525535 1.0871589483622e+14
3131	15366836 1535 1116419 1121812 83.839193296623 84.095 53 65535 22491112 1166461963 2.6165120174421e+16
3132	15368371 29 1116736 1116736 83.863 83.863 1 20959799 20959799 20959799 4.393131741204e+14
3133	15368400 1502 1116419 1121812 83.839193296623 84.095 52 0 21031112 1070907642 2.2487144124311e+16
3134	15369902 1471 1116732 1121812 83.863 84.095 51 20963250 21031111 1070839780 2.2484294302917e+16
3135	15371373 1471 1116732 1121812 83.863 84.095 51 20959799 20960550 1068987251 2.2406543977033e+16
3136	15372844 90 1116736 1121811 83.863 84.095 4 0 750 751 562501
3137	15372934 1092 1117242 1121812 83.897 84.095 50 0 0 0 0
3144	15374026 2171 1116419 1121812 83.839193296623 84.095 99 0 0 0 0
3146	15376197 50 1117242 1121811 83.897 84.095 2 2920 4380 7300 27710800
3148	15376247 26 1117242 1117242 83.897 83.897 1 0.034 0.034 0.034 0.001156
3149	15376273 28 1117242 1117242 83.897 83.897 1 0.00425 0.00425 0.00425 1.80625e-05
3150	15376301 27 1117242 1117242 83.897 83.897 1 0.6605 0.6605 0.6605 0.43626025
3151	15376328 28 1117242 1117242 83.897 83.897 1 2.64625 2.64625 2.64625 7.0026390625
3177	15376356 81 1133299 1151036 86.216 86.624 3 65535 1460000 2985535 4267494836225
3178	15376437 7312 1133041 1151037 86.188214292324 86.624 262 65535 1460000 381125535 5.5635189483622e+14
3179	15383749 7602 1133041 1151037 86.188214292324 86.624 263 65535 23385640 6076575907 1.4093687076404e+17
3180	15391351 29 1133303 1133303 86.216 86.216 1 21547054 21547054 21547054 4.6427553607892e+14
3181	15391380 7569 1133041 1151037 86.188214292324 86.624 262 0 21925640 5673834336 1.2334566959573e+17
3182	15398949 7537 1133299 1151037 86.216 86.624 261 21550500 21925639 5673459196 1.2332935995657e+17
3183	15406486 7537 1133299 1151037 86.216 86.624 261 21547054 21547805 5623976096 1.211843185001e+17
3184	15414023 89 1133303 1151036 86.216 86.624 4 0 750 751 562501
3185	15414112 5688 1133703 1151037 86.25 86.624 260 0 0 0 0
3192	15419800 11365 1133041 1151037 86.188214292324 86.624 519 0 0 0 0
3194	15431165 49 1133703 1151036 86.25 86.624 2 2920 4380 7300 27710800
3196	15431214 25 1133703 1133703 86.25 86.25 1 0.034 0.034 0.034 0.001156
3197	15431239 27 1133703 1133703 86.25 86.25 1 0.00425 0.00425 0.00425 1.80625e-05
3198	15431266 26 1133703 1133703 86.25 86.25 1 0.6605 0.6605 0.6605 0.43626025
3199	15431292 27 1133703 1133703 86.25 86.25 1 2.64625 2.64625 2.64625 7.0026390625
3225	15431319 82 1158593 1197222 88.002 88.589 3 65535 1460000 2985535 4267494836225
3226	15431401 18222 1158337 1197223 87.974782024803 88.589 653 65535 1460000 951985535 1.3898074948362e+15
3227	15449623 18903 1158337 1197223 87.974782024803 88.589 654 65535 24402107 15624984919 3.7392423994639e+17
3228	15468526 29 1158597 1158597 88.002 88.002 1 21993696 21993696 21993696 4.8372266374042e+14
3229	15468555 18870 1158337 1197223 87.974782024803 88.589 653 0 22942107 14650936848 3.2926694136064e+17
3230	15487425 18839 1158593 1197223 88.002 88.589 652 21997000 22942106 14649991741 3.2922446909604e+17
3231	15506264 18839 1158593 1197223 88.002 88.589 652 21993696 21994447 14340378044 3.1540865405706e+17
3232	15525103 90 1158597 1197222 88.002 88.589 4 0 750 751 562501
3233	15525193 14253 1158997 1197223 88.036 88.589 651 0 0 0 0
3240	15539446 28493 1158337 1197223 87.974782024803 88.589 1301 0 0 0 0
3242	15567939 50 1158997 1197222 88.036 88.589 2 2920 4380 7300 27710800
3244	15567989 26 1158997 1158997 88.036 88.036 1 0.034 0.034 0.034 0.001156
3245	15568015 28 1158997 1158997 88.036 88.036 1 0.00425 0.00425 0.00425 1.80625e-05
3246	15568043 27 1158997 1158997 88.036 88.036 1 0.6605 0.6605 0.6605 0.43626025
3247	15568070 28 1158997 1158997 88.036 88.036 1 2.64625 2.64625 2.64625 7.0026390625
3273	15568098 80 1202535 1209751 89.486 89.77 3 65535 1460000 2985535 4267494836225
3274	15568178 2296 1202277 1209752 89.45806381498 89.77 82 65535 1460000 118325535 1.7266389483622e+14
3275	15570474 2406 1202277 1209752 89.45806381498 89.77 83 65535 23939623 1957173976 4.6712830278301e+16
3276	15572880 29 1202539 1202539 89.486 89.486 1 22364516 22364516 22364516 5.0017157591426e+14
3277	15572909 2373 1202277 1209752 89.45806381498 89.77 82 0 22479623 1816414905 4.0732971323401e+16
3278	15575282 2341 1202535 1209752 89.486 89.77 81 22368000 22479622 1816303282 4.0727965297179e+16
3279	15577623 2341 1202535 1209752 89.486 89.77 81 22364516 22365267 1811585798 4.0516581525436e+16
3280	15579964 88 1202539 1209751 89.486 89.77 4 0 750 751 562501
3281	15580052 1752 1202939 1209752 89.52 89.77 80 0 0 0 0
3288	15581804 3495 1202277 1209752 89.45806381498 89.77 159 0 0 0 0
3290	15585299 48 1202939 1209751 89.52 89.77 2 2920 4380 7300 27710800
3292	15585347 25 1202939 1202939 89.52 89.52 1 0.034 0.034 0.034 0.001156
3293	15585372 27 1202939 1202939 89.52 89.52 1 0.00425 0.00425 0.00425 1.80625e-05
3294	15585399 26 1202939 1202939 89.52 89.52 1 0.6605 0.6605 0.6605 0.43626025
3295	15585425 27 1202939 1202939 89.52 89.52 1 2.64625 2.64625 2.64625 7.0026390625
