version 2
run Test-0-20170203-17:43:51-15831
attr configname Test
attr datetime 20170203-17:43:51
attr experiment Test
attr inifile omnetpp.ini
attr iterationvars ""
attr iterationvars2 $repetition=0
attr measurement ""
attr network LTECell
attr processid 15831
attr repetition 0
attr replication #0
attr resultdir results
attr runnumber 0
attr seedset 0
param **.UE*.macCellId 1
param **.UE*.masterId 1
param **.UE*.mobility.initFromDisplayString false
param **.UERx.mobility.initialX 500m
param **.UERx.mobility.initialY 300m
param **.UETx.mobility.initialX 100m
param **.UETx.mobility.initialY 300m
param **.UETx.numTcpApps 1
param **.UETx.tcpApp[0].connectAddress "\"server\""
param **.UETx.tcpApp[0].connectPort 1000
param **.UETx.tcpApp[0].idleInterval exponential(1s)
param **.UETx.tcpApp[0].replyLength exponential(250kB)
param **.UETx.tcpApp[0].requestLength 750B
param **.UETx.tcpApp[0].thinkTime 0s
param **.UETx.tcpApp[0].typename "\"TCPBasicClientApp\""
param **.batchSize 10000
param **.channelControl.alpha 1.0
param **.channelControl.carrierFrequency 2100e+6Hz
param **.channelControl.pMax 10W
param **.deployer.numRbDl 50
param **.deployer.numRbUl 50
param **.eNodeB.mobility.initialX 300m
param **.eNodeB.mobility.initialY 300m
param **.eth[*].inputHook[0].typename "\"ThruputMeter\""
param **.eth[*].numInputHooks 1
param **.fbDelay 1
param **.feedbackComputation "xmldoc(\"config_channel.xml\")"
param **.inputHook[*].typename "\"ThruputMeter\""
param **.maxInterval 1s
param **.mobility.constraintAreaMaxZ 0m
param **.mobility.constraintAreaMinZ 0m
param **.nic.phy.channelModel "xmldoc(\"config_channel.xml\")"
param **.numBands 50
param **.ppp[*].inputHook[0].typename "\"ThruputMeter\""
param **.ppp[*].numInputHooks 1
param **.routingRecorder.enabled false
param **.server.numTcpApps 1
param **.server.tcpApp[0].localPort 1000
param **.server.tcpApp[0].typename "\"TCPGenericSrvApp\""
param *.eNodeB.mobility.initFromDisplayString false

vector 20  LTECell.eNodeB.ppp.queue  queueLength:vector  ETV
attr interpolationmode  sample-hold
attr title  "queue length, vector"
vector 21  LTECell.eNodeB.ppp.ppp  txState:vector  ETV
attr interpolationmode  sample-hold
attr title  "tx state, vector"
vector 43  LTECell.pgw.ppp[0].queue  queueLength:vector  ETV
attr interpolationmode  sample-hold
attr title  "queue length, vector"
vector 44  LTECell.pgw.ppp[0].ppp  txState:vector  ETV
attr interpolationmode  sample-hold
attr title  "tx state, vector"
vector 54  LTECell.pgw.pppInterface.queue  queueLength:vector  ETV
attr interpolationmode  sample-hold
attr title  "queue length, vector"
vector 55  LTECell.pgw.pppInterface.ppp  txState:vector  ETV
attr interpolationmode  sample-hold
attr title  "tx state, vector"
vector 70  LTECell.router.ppp[0].queue  queueLength:vector  ETV
attr interpolationmode  sample-hold
attr title  "queue length, vector"
vector 71  LTECell.router.ppp[0].ppp  txState:vector  ETV
attr interpolationmode  sample-hold
attr title  "tx state, vector"
vector 81  LTECell.router.ppp[1].queue  queueLength:vector  ETV
attr interpolationmode  sample-hold
attr title  "queue length, vector"
vector 82  LTECell.router.ppp[1].ppp  txState:vector  ETV
attr interpolationmode  sample-hold
attr title  "tx state, vector"
vector 100  LTECell.server.ppp[0].queue  queueLength:vector  ETV
attr interpolationmode  sample-hold
attr title  "queue length, vector"
vector 101  LTECell.server.ppp[0].ppp  txState:vector  ETV
attr interpolationmode  sample-hold
attr title  "tx state, vector"
vector 10  LTECell.eNodeB.nic.mac  receivedPacketFromLowerLayer:vector(packetBytes)  ETV
attr interpolationmode  none
attr source  receivedPacketFromLowerLayer
vector 111  LTECell.UETx.tcpApp[0]  numActiveSessions:vector  ETV
attr interpolationmode  sample-hold
attr source  sum(connect)
attr title  "number of active sessions, vector"
vector 189  LTECell.UETx.tcp  tcpRcvQueueBytes  ETV
vector 176  LTECell.UETx.tcp  "advertised window"  ETV
vector 175  LTECell.UETx.tcp  "receive window"  ETV
vector 178  LTECell.UETx.tcp  "sent ack"  ETV
vector 112  LTECell.UETx.nic.pdcpRrc  receivedPacketFromUpperLayer:vector(packetBytes)  ETV
attr interpolationmode  none
attr source  receivedPacketFromUpperLayer
vector 115  LTECell.UETx.nic.pdcpRrc  sentPacketToLowerLayer:vector(packetBytes)  ETV
attr interpolationmode  none
attr source  sentPacketToLowerLayer
vector 116  LTECell.UETx.nic.mac  receivedPacketFromUpperLayer:vector(packetBytes)  ETV
attr interpolationmode  none
attr source  receivedPacketFromUpperLayer
vector 119  LTECell.UETx.nic.mac  sentPacketToLowerLayer:vector(packetBytes)  ETV
attr interpolationmode  none
attr source  sentPacketToLowerLayer
vector 12  LTECell.eNodeB.nic.mac  sentPacketToLowerLayer:vector(packetBytes)  ETV
attr interpolationmode  none
attr source  sentPacketToLowerLayer
vector 117  LTECell.UETx.nic.mac  receivedPacketFromLowerLayer:vector(packetBytes)  ETV
attr interpolationmode  none
attr source  receivedPacketFromLowerLayer
vector 118  LTECell.UETx.nic.mac  sentPacketToUpperLayer:vector(packetBytes)  ETV
attr interpolationmode  none
attr source  sentPacketToUpperLayer
vector 15  LTECell.eNodeB.nic.phy  averageCqiUlvect:vector  ETV
attr source  averageCqiUlvect
attr title  "Average Cqi reported in UL, vector"
attr unit  cqi
vector 11  LTECell.eNodeB.nic.mac  sentPacketToUpperLayer:vector(packetBytes)  ETV
attr interpolationmode  none
attr source  sentPacketToUpperLayer
vector 13  LTECell.eNodeB.nic.mac  measuredItbs:vector  ETV
attr source  measuredItbs
attr title  "TBS index, vector"
attr unit  ""
vector 6  LTECell.eNodeB.nic.pdcpRrc  receivedPacketFromLowerLayer:vector(packetBytes)  ETV
attr interpolationmode  none
attr source  receivedPacketFromLowerLayer
vector 7  LTECell.eNodeB.nic.pdcpRrc  sentPacketToUpperLayer:vector(packetBytes)  ETV
attr interpolationmode  none
attr source  sentPacketToUpperLayer
vector 0  LTECell.eNodeB.udp  sentPk:vector(packetBytes)  ETV
attr interpolationmode  none
attr source  sentPk
attr title  "packets sent, vector(packetBytes)"
vector 17  LTECell.eNodeB.ppp.queue  rcvdPk:vector(packetBytes)  ETV
attr interpolationmode  none
attr title  "received packets, vector(packetBytes)"
vector 19  LTECell.eNodeB.ppp.queue  queueingTime:vector  ETV
attr interpolationmode  none
attr title  "queueing time, vector"
vector 26  LTECell.eNodeB.ppp.ppp  rcvdPkFromHL:vector(packetBytes)  ETV
attr interpolationmode  none
attr source  packetReceivedFromUpper
attr title  "packets received from higher layer, vector(packetBytes)"
vector 22  LTECell.eNodeB.ppp.ppp  txPk:vector(packetBytes)  ETV
attr interpolationmode  none
attr source  packetSentToLower
attr title  "packets transmitted, vector(packetBytes)"
vector 46  LTECell.pgw.ppp[0].ppp  rxPkOk:vector(packetBytes)  ETV
attr interpolationmode  none
attr source  rxPkOk
attr title  "packets received OK, vector(packetBytes)"
vector 50  LTECell.pgw.ppp[0].ppp  passedUpPk:vector(packetBytes)  ETV
attr interpolationmode  none
attr source  packetSentToUpper
attr title  "packets passed to higher layer, vector(packetBytes)"
vector 142  LTECell.pgw.ppp[0].inputHook[0]  "thruput (bit/sec)"  ETV
vector 143  LTECell.pgw.ppp[0].inputHook[0]  packet/sec  ETV
vector 31  LTECell.pgw.udp  rcvdPk:vector(packetBytes)  ETV
attr interpolationmode  none
attr source  rcvdPk
attr title  "packets received, vector(packetBytes)"
vector 32  LTECell.pgw.udp  passedUpPk:vector(count)  ETV
attr interpolationmode  none
attr title  "packets passed up, vector(count)"
vector 51  LTECell.pgw.pppInterface.queue  rcvdPk:vector(packetBytes)  ETV
attr interpolationmode  none
attr title  "received packets, vector(packetBytes)"
vector 53  LTECell.pgw.pppInterface.queue  queueingTime:vector  ETV
attr interpolationmode  none
attr title  "queueing time, vector"
vector 60  LTECell.pgw.pppInterface.ppp  rcvdPkFromHL:vector(packetBytes)  ETV
attr interpolationmode  none
attr source  packetReceivedFromUpper
attr title  "packets received from higher layer, vector(packetBytes)"
vector 56  LTECell.pgw.pppInterface.ppp  txPk:vector(packetBytes)  ETV
attr interpolationmode  none
attr source  packetSentToLower
attr title  "packets transmitted, vector(packetBytes)"
vector 73  LTECell.router.ppp[0].ppp  rxPkOk:vector(packetBytes)  ETV
attr interpolationmode  none
attr source  rxPkOk
attr title  "packets received OK, vector(packetBytes)"
vector 77  LTECell.router.ppp[0].ppp  passedUpPk:vector(packetBytes)  ETV
attr interpolationmode  none
attr source  packetSentToUpper
attr title  "packets passed to higher layer, vector(packetBytes)"
vector 144  LTECell.router.ppp[0].inputHook[0]  "thruput (bit/sec)"  ETV
vector 145  LTECell.router.ppp[0].inputHook[0]  packet/sec  ETV
vector 78  LTECell.router.ppp[1].queue  rcvdPk:vector(packetBytes)  ETV
attr interpolationmode  none
attr title  "received packets, vector(packetBytes)"
vector 80  LTECell.router.ppp[1].queue  queueingTime:vector  ETV
attr interpolationmode  none
attr title  "queueing time, vector"
vector 87  LTECell.router.ppp[1].ppp  rcvdPkFromHL:vector(packetBytes)  ETV
attr interpolationmode  none
attr source  packetReceivedFromUpper
attr title  "packets received from higher layer, vector(packetBytes)"
vector 83  LTECell.router.ppp[1].ppp  txPk:vector(packetBytes)  ETV
attr interpolationmode  none
attr source  packetSentToLower
attr title  "packets transmitted, vector(packetBytes)"
vector 103  LTECell.server.ppp[0].ppp  rxPkOk:vector(packetBytes)  ETV
attr interpolationmode  none
attr source  rxPkOk
attr title  "packets received OK, vector(packetBytes)"
vector 107  LTECell.server.ppp[0].ppp  passedUpPk:vector(packetBytes)  ETV
attr interpolationmode  none
attr source  packetSentToUpper
attr title  "packets passed to higher layer, vector(packetBytes)"
vector 148  LTECell.server.ppp[0].inputHook[0]  "thruput (bit/sec)"  ETV
vector 149  LTECell.server.ppp[0].inputHook[0]  packet/sec  ETV
vector 155  LTECell.server.tcp  "rcvd seq"  ETV
vector 156  LTECell.server.tcp  "rcvd ack"  ETV
vector 152  LTECell.server.tcp  "advertised window"  ETV
vector 150  LTECell.server.tcp  "send window"  ETV
vector 165  LTECell.server.tcp  tcpRcvQueueBytes  ETV
vector 151  LTECell.server.tcp  "receive window"  ETV
vector 154  LTECell.server.tcp  "sent ack"  ETV
vector 97  LTECell.server.ppp[0].queue  rcvdPk:vector(packetBytes)  ETV
attr interpolationmode  none
attr title  "received packets, vector(packetBytes)"
vector 99  LTECell.server.ppp[0].queue  queueingTime:vector  ETV
attr interpolationmode  none
attr title  "queueing time, vector"
vector 106  LTECell.server.ppp[0].ppp  rcvdPkFromHL:vector(packetBytes)  ETV
attr interpolationmode  none
attr source  packetReceivedFromUpper
attr title  "packets received from higher layer, vector(packetBytes)"
vector 102  LTECell.server.ppp[0].ppp  txPk:vector(packetBytes)  ETV
attr interpolationmode  none
attr source  packetSentToLower
attr title  "packets transmitted, vector(packetBytes)"
vector 84  LTECell.router.ppp[1].ppp  rxPkOk:vector(packetBytes)  ETV
attr interpolationmode  none
attr source  rxPkOk
attr title  "packets received OK, vector(packetBytes)"
vector 88  LTECell.router.ppp[1].ppp  passedUpPk:vector(packetBytes)  ETV
attr interpolationmode  none
attr source  packetSentToUpper
attr title  "packets passed to higher layer, vector(packetBytes)"
vector 146  LTECell.router.ppp[1].inputHook[0]  "thruput (bit/sec)"  ETV
vector 147  LTECell.router.ppp[1].inputHook[0]  packet/sec  ETV
vector 67  LTECell.router.ppp[0].queue  rcvdPk:vector(packetBytes)  ETV
attr interpolationmode  none
attr title  "received packets, vector(packetBytes)"
vector 69  LTECell.router.ppp[0].queue  queueingTime:vector  ETV
attr interpolationmode  none
attr title  "queueing time, vector"
vector 76  LTECell.router.ppp[0].ppp  rcvdPkFromHL:vector(packetBytes)  ETV
attr interpolationmode  none
attr source  packetReceivedFromUpper
attr title  "packets received from higher layer, vector(packetBytes)"
vector 72  LTECell.router.ppp[0].ppp  txPk:vector(packetBytes)  ETV
attr interpolationmode  none
attr source  packetSentToLower
attr title  "packets transmitted, vector(packetBytes)"
vector 57  LTECell.pgw.pppInterface.ppp  rxPkOk:vector(packetBytes)  ETV
attr interpolationmode  none
attr source  rxPkOk
attr title  "packets received OK, vector(packetBytes)"
vector 61  LTECell.pgw.pppInterface.ppp  passedUpPk:vector(packetBytes)  ETV
attr interpolationmode  none
attr source  packetSentToUpper
attr title  "packets passed to higher layer, vector(packetBytes)"
vector 30  LTECell.pgw.udp  sentPk:vector(packetBytes)  ETV
attr interpolationmode  none
attr source  sentPk
attr title  "packets sent, vector(packetBytes)"
vector 40  LTECell.pgw.ppp[0].queue  rcvdPk:vector(packetBytes)  ETV
attr interpolationmode  none
attr title  "received packets, vector(packetBytes)"
vector 42  LTECell.pgw.ppp[0].queue  queueingTime:vector  ETV
attr interpolationmode  none
attr title  "queueing time, vector"
vector 49  LTECell.pgw.ppp[0].ppp  rcvdPkFromHL:vector(packetBytes)  ETV
attr interpolationmode  none
attr source  packetReceivedFromUpper
attr title  "packets received from higher layer, vector(packetBytes)"
vector 45  LTECell.pgw.ppp[0].ppp  txPk:vector(packetBytes)  ETV
attr interpolationmode  none
attr source  packetSentToLower
attr title  "packets transmitted, vector(packetBytes)"
vector 23  LTECell.eNodeB.ppp.ppp  rxPkOk:vector(packetBytes)  ETV
attr interpolationmode  none
attr source  rxPkOk
attr title  "packets received OK, vector(packetBytes)"
vector 27  LTECell.eNodeB.ppp.ppp  passedUpPk:vector(packetBytes)  ETV
attr interpolationmode  none
attr source  packetSentToUpper
attr title  "packets passed to higher layer, vector(packetBytes)"
vector 1  LTECell.eNodeB.udp  rcvdPk:vector(packetBytes)  ETV
attr interpolationmode  none
attr source  rcvdPk
attr title  "packets received, vector(packetBytes)"
vector 2  LTECell.eNodeB.udp  passedUpPk:vector(count)  ETV
attr interpolationmode  none
attr title  "packets passed up, vector(count)"
vector 5  LTECell.eNodeB.nic.pdcpRrc  receivedPacketFromUpperLayer:vector(packetBytes)  ETV
attr interpolationmode  none
attr source  receivedPacketFromUpperLayer
vector 8  LTECell.eNodeB.nic.pdcpRrc  sentPacketToLowerLayer:vector(packetBytes)  ETV
attr interpolationmode  none
attr source  sentPacketToLowerLayer
vector 9  LTECell.eNodeB.nic.mac  receivedPacketFromUpperLayer:vector(packetBytes)  ETV
attr interpolationmode  none
attr source  receivedPacketFromUpperLayer
vector 121  LTECell.UETx.nic.phy  averageCqiDlvect:vector  ETV
attr source  averageCqiDlvect
attr title  "Average Cqi reported in DL, vector"
attr unit  cqi
vector 113  LTECell.UETx.nic.pdcpRrc  receivedPacketFromLowerLayer:vector(packetBytes)  ETV
attr interpolationmode  none
attr source  receivedPacketFromLowerLayer
vector 114  LTECell.UETx.nic.pdcpRrc  sentPacketToUpperLayer:vector(packetBytes)  ETV
attr interpolationmode  none
attr source  sentPacketToUpperLayer
vector 179  LTECell.UETx.tcp  "rcvd seq"  ETV
vector 180  LTECell.UETx.tcp  "rcvd ack"  ETV
vector 174  LTECell.UETx.tcp  "send window"  ETV
vector 109  LTECell.UETx.tcpApp[0]  sentPk:vector(packetBytes)  ETV
attr interpolationmode  none
attr source  sentPk
attr title  "packets sent, vector(packetBytes)"
vector 177  LTECell.UETx.tcp  "sent seq"  ETV
vector 181  LTECell.UETx.tcp  "unacked bytes"  ETV
vector 157  LTECell.server.tcp  "unacked bytes"  ETV
vector 158  LTECell.server.tcp  "rcvd dupAcks"  ETV
vector 193  LTECell.UETx.tcp  "measured RTT"  ETV
vector 194  LTECell.UETx.tcp  "smoothed RTT"  ETV
vector 195  LTECell.UETx.tcp  RTTVAR  ETV
vector 196  LTECell.UETx.tcp  RTO  ETV
vector 191  LTECell.UETx.tcp  cwnd  ETV
vector 182  LTECell.UETx.tcp  "rcvd dupAcks"  ETV
0	5430	1.008	52
0	5621	1.022	48
0	5710	1.028	584
0	5958	1.048	262
1	5476	1.0080005896	52
1	5764	1.0280018568	48
1	6008	1.048001084	48
2	5476	1.0080005896	1
2	5764	1.0280018568	2
2	6008	1.048001084	3
5	5479	1.0080005896	44
5	5767	1.0280018568	40
5	6011	1.048001084	40
6	5426	1.008	45
6	5617	1.022	41
6	5706	1.028	577
6	5954	1.048	255
7	5426	1.008	44
7	5617	1.022	40
7	5706	1.028	576
7	5954	1.048	254
8	5479	1.0080005896	45
8	5767	1.0280018568	41
8	6011	1.048001084	41
9	5482	1.0080005896	45
9	5489	1.009	47
9	5770	1.0280018568	41
9	5775	1.029	43
9	6014	1.048001084	41
9	6019	1.049	43
10	35	0.002	0
10	37	0.002	0
10	67	0.008	0
10	69	0.008	0
10	99	0.014	0
10	101	0.014	0
10	131	0.02	0
10	133	0.02	0
10	163	0.026	0
10	165	0.026	0
10	195	0.032	0
10	197	0.032	0
10	227	0.038	0
10	229	0.038	0
10	259	0.044	0
10	261	0.044	0
10	291	0.05	0
10	293	0.05	0
10	323	0.056	0
10	325	0.056	0
10	355	0.062	0
10	357	0.062	0
10	387	0.068	0
10	389	0.068	0
10	419	0.074	0
10	421	0.074	0
10	451	0.08	0
10	453	0.08	0
10	483	0.086	0
10	485	0.086	0
10	515	0.092	0
10	517	0.092	0
10	547	0.098	0
10	549	0.098	0
10	579	0.104	0
10	581	0.104	0
10	611	0.11	0
10	613	0.11	0
10	643	0.116	0
10	645	0.116	0
10	675	0.122	0
10	677	0.122	0
10	707	0.128	0
10	709	0.128	0
10	739	0.134	0
10	741	0.134	0
10	771	0.14	0
10	773	0.14	0
10	803	0.146	0
10	805	0.146	0
10	835	0.152	0
10	837	0.152	0
10	867	0.158	0
10	869	0.158	0
10	899	0.164	0
10	901	0.164	0
10	931	0.17	0
10	933	0.17	0
10	963	0.176	0
10	965	0.176	0
10	995	0.182	0
10	997	0.182	0
10	1027	0.188	0
10	1029	0.188	0
10	1059	0.194	0
10	1061	0.194	0
10	1091	0.2	0
10	1093	0.2	0
10	1123	0.206	0
10	1125	0.206	0
10	1155	0.212	0
10	1157	0.212	0
10	1187	0.218	0
10	1189	0.218	0
10	1219	0.224	0
10	1221	0.224	0
10	1251	0.23	0
10	1253	0.23	0
10	1283	0.236	0
10	1285	0.236	0
10	1315	0.242	0
10	1317	0.242	0
10	1347	0.248	0
10	1349	0.248	0
10	1379	0.254	0
10	1381	0.254	0
10	1411	0.26	0
10	1413	0.26	0
10	1443	0.266	0
10	1445	0.266	0
10	1475	0.272	0
10	1477	0.272	0
10	1507	0.278	0
10	1509	0.278	0
10	1539	0.284	0
10	1541	0.284	0
10	1571	0.29	0
10	1573	0.29	0
10	1603	0.296	0
10	1605	0.296	0
10	1635	0.302	0
10	1637	0.302	0
10	1667	0.308	0
10	1669	0.308	0
10	1699	0.314	0
10	1701	0.314	0
10	1731	0.32	0
10	1733	0.32	0
10	1763	0.326	0
10	1765	0.326	0
10	1795	0.332	0
10	1797	0.332	0
10	1827	0.338	0
10	1829	0.338	0
10	1859	0.344	0
10	1861	0.344	0
10	1891	0.35	0
10	1893	0.35	0
10	1923	0.356	0
10	1925	0.356	0
10	1955	0.362	0
10	1957	0.362	0
10	1987	0.368	0
10	1989	0.368	0
10	2019	0.374	0
10	2021	0.374	0
10	2051	0.38	0
10	2053	0.38	0
10	2083	0.386	0
10	2085	0.386	0
10	2115	0.392	0
10	2117	0.392	0
10	2147	0.398	0
10	2149	0.398	0
10	2179	0.404	0
10	2181	0.404	0
10	2211	0.41	0
10	2213	0.41	0
10	2243	0.416	0
10	2245	0.416	0
10	2275	0.422	0
10	2277	0.422	0
10	2307	0.428	0
10	2309	0.428	0
10	2339	0.434	0
10	2341	0.434	0
10	2371	0.44	0
10	2373	0.44	0
10	2403	0.446	0
10	2405	0.446	0
10	2435	0.452	0
10	2437	0.452	0
10	2467	0.458	0
10	2469	0.458	0
10	2499	0.464	0
10	2501	0.464	0
10	2531	0.47	0
10	2533	0.47	0
10	2563	0.476	0
10	2565	0.476	0
10	2595	0.482	0
10	2597	0.482	0
10	2627	0.488	0
10	2629	0.488	0
10	2659	0.494	0
10	2661	0.494	0
10	2691	0.5	0
10	2693	0.5	0
10	2723	0.506	0
10	2725	0.506	0
10	2755	0.512	0
10	2757	0.512	0
10	2787	0.518	0
10	2789	0.518	0
10	2819	0.524	0
10	2821	0.524	0
10	2851	0.53	0
10	2853	0.53	0
10	2883	0.536	0
10	2885	0.536	0
10	2915	0.542	0
10	2917	0.542	0
10	2947	0.548	0
10	2949	0.548	0
10	2979	0.554	0
10	2981	0.554	0
10	3011	0.56	0
10	3013	0.56	0
10	3043	0.566	0
10	3045	0.566	0
10	3075	0.572	0
10	3077	0.572	0
10	3107	0.578	0
10	3109	0.578	0
10	3139	0.584	0
10	3141	0.584	0
10	3171	0.59	0
10	3173	0.59	0
10	3203	0.596	0
10	3205	0.596	0
10	3235	0.602	0
10	3237	0.602	0
10	3267	0.608	0
10	3269	0.608	0
10	3299	0.614	0
10	3301	0.614	0
10	3331	0.62	0
10	3333	0.62	0
10	3363	0.626	0
10	3365	0.626	0
10	3395	0.632	0
10	3397	0.632	0
10	3427	0.638	0
10	3429	0.638	0
10	3459	0.644	0
10	3461	0.644	0
10	3491	0.65	0
10	3493	0.65	0
10	3523	0.656	0
10	3525	0.656	0
10	3555	0.662	0
10	3557	0.662	0
10	3587	0.668	0
10	3589	0.668	0
10	3619	0.674	0
10	3621	0.674	0
10	3651	0.68	0
10	3653	0.68	0
10	3683	0.686	0
10	3685	0.686	0
10	3715	0.692	0
10	3717	0.692	0
10	3747	0.698	0
10	3749	0.698	0
10	3779	0.704	0
10	3781	0.704	0
10	3811	0.71	0
10	3813	0.71	0
10	3843	0.716	0
10	3845	0.716	0
10	3875	0.722	0
10	3877	0.722	0
10	3907	0.728	0
10	3909	0.728	0
10	3939	0.734	0
10	3941	0.734	0
10	3971	0.74	0
10	3973	0.74	0
10	4003	0.746	0
10	4005	0.746	0
10	4035	0.752	0
10	4037	0.752	0
10	4067	0.758	0
10	4069	0.758	0
10	4099	0.764	0
10	4101	0.764	0
10	4131	0.77	0
10	4133	0.77	0
10	4163	0.776	0
10	4165	0.776	0
10	4195	0.782	0
10	4197	0.782	0
10	4227	0.788	0
10	4229	0.788	0
10	4259	0.794	0
10	4261	0.794	0
10	4291	0.8	0
10	4293	0.8	0
10	4323	0.806	0
10	4325	0.806	0
10	4355	0.812	0
10	4357	0.812	0
10	4387	0.818	0
10	4389	0.818	0
10	4419	0.824	0
10	4421	0.824	0
10	4451	0.83	0
10	4453	0.83	0
10	4483	0.836	0
10	4485	0.836	0
10	4515	0.842	0
10	4517	0.842	0
10	4547	0.848	0
10	4549	0.848	0
10	4579	0.854	0
10	4581	0.854	0
10	4611	0.86	0
10	4613	0.86	0
10	4643	0.866	0
10	4645	0.866	0
10	4675	0.872	0
10	4677	0.872	0
10	4707	0.878	0
10	4709	0.878	0
10	4739	0.884	0
10	4741	0.884	0
10	4771	0.89	0
10	4773	0.89	0
10	4803	0.896	0
10	4805	0.896	0
10	4835	0.902	0
10	4837	0.902	0
10	4867	0.908	0
10	4869	0.908	0
10	4899	0.914	0
10	4901	0.914	0
10	4931	0.92	0
10	4933	0.92	0
10	4963	0.926	0
10	4965	0.926	0
10	4995	0.932	0
10	4997	0.932	0
10	5027	0.938	0
10	5029	0.938	0
10	5059	0.944	0
10	5061	0.944	0
10	5091	0.95	0
10	5093	0.95	0
10	5123	0.956	0
10	5125	0.956	0
10	5155	0.962	0
10	5157	0.962	0
10	5187	0.968	0
10	5189	0.968	0
10	5219	0.974	0
10	5221	0.974	0
10	5251	0.98	0
10	5253	0.98	0
10	5283	0.986	0
10	5285	0.986	0
10	5315	0.992	0
10	5317	0.992	0
10	5347	0.998	0
10	5349	0.998	0
10	5372	1.001	0
10	5402	1.004	0
10	5404	1.004	0
10	5410	1.005	0
10	5504	1.01	0
10	5506	1.01	0
10	5550	1.014	0
10	5558	1.015	0
10	5566	1.016	0
10	5568	1.016	0
10	5593	1.019	0
10	5601	1.02	0
10	5629	1.022	0
10	5631	1.022	0
10	5679	1.024	0
10	5685	1.025	0
10	5718	1.028	0
10	5720	1.028	0
10	5824	1.034	0
10	5826	1.034	0
10	5828	1.034	0
10	5834	1.035	0
10	5869	1.039	0
10	5875	1.04	0
10	5877	1.04	0
10	5879	1.04	0
10	5925	1.044	0
10	5933	1.045	0
10	5939	1.046	0
10	5941	1.046	0
10	6046	1.052	0
10	6048	1.052	0
10	6065	1.054	0
10	6087	1.058	0
10	6089	1.058	0
10	6119	1.064	0
10	6121	1.064	0
10	6151	1.07	0
10	6153	1.07	0
10	6183	1.076	0
10	6185	1.076	0
10	6215	1.082	0
10	6217	1.082	0
10	6247	1.088	0
10	6249	1.088	0
10	6279	1.094	0
10	6281	1.094	0
10	6311	1.1	0
10	6313	1.1	0
10	6343	1.106	0
10	6345	1.106	0
10	6375	1.112	0
10	6377	1.112	0
10	6407	1.118	0
10	6409	1.118	0
10	6439	1.124	0
10	6441	1.124	0
10	6471	1.13	0
10	6473	1.13	0
10	6503	1.136	0
10	6505	1.136	0
10	6535	1.142	0
10	6537	1.142	0
10	6567	1.148	0
10	6569	1.148	0
10	6599	1.154	0
10	6601	1.154	0
10	6631	1.16	0
10	6633	1.16	0
10	6663	1.166	0
10	6665	1.166	0
10	6695	1.172	0
10	6697	1.172	0
10	6727	1.178	0
10	6729	1.178	0
10	6759	1.184	0
10	6761	1.184	0
10	6791	1.19	0
10	6793	1.19	0
10	6823	1.196	0
10	6825	1.196	0
10	6855	1.202	0
10	6857	1.202	0
10	6887	1.208	0
10	6889	1.208	0
10	6919	1.214	0
10	6921	1.214	0
10	6951	1.22	0
10	6953	1.22	0
10	6983	1.226	0
10	6985	1.226	0
10	7015	1.232	0
10	7017	1.232	0
10	7047	1.238	0
10	7049	1.238	0
10	7079	1.244	0
10	7081	1.244	0
10	7111	1.25	0
10	7113	1.25	0
10	7143	1.256	0
10	7145	1.256	0
10	7175	1.262	0
10	7177	1.262	0
10	7207	1.268	0
10	7209	1.268	0
10	7239	1.274	0
10	7241	1.274	0
10	7271	1.28	0
10	7273	1.28	0
10	7303	1.286	0
10	7305	1.286	0
10	7335	1.292	0
10	7337	1.292	0
10	7367	1.298	0
10	7369	1.298	0
10	7399	1.304	0
10	7401	1.304	0
10	7431	1.31	0
10	7433	1.31	0
10	7463	1.316	0
10	7465	1.316	0
10	7495	1.322	0
10	7497	1.322	0
10	7527	1.328	0
10	7529	1.328	0
10	7559	1.334	0
10	7561	1.334	0
10	7591	1.34	0
10	7593	1.34	0
10	7623	1.346	0
10	7625	1.346	0
10	7655	1.352	0
10	7657	1.352	0
10	7687	1.358	0
10	7689	1.358	0
10	7719	1.364	0
10	7721	1.364	0
10	7751	1.37	0
10	7753	1.37	0
10	7783	1.376	0
10	7785	1.376	0
10	7815	1.382	0
10	7817	1.382	0
10	7847	1.388	0
10	7849	1.388	0
10	7879	1.394	0
10	7881	1.394	0
10	7911	1.4	0
10	7913	1.4	0
10	7943	1.406	0
10	7945	1.406	0
10	7975	1.412	0
10	7977	1.412	0
10	8007	1.418	0
10	8009	1.418	0
10	8039	1.424	0
10	8041	1.424	0
10	8071	1.43	0
10	8073	1.43	0
10	8103	1.436	0
10	8105	1.436	0
10	8135	1.442	0
10	8137	1.442	0
10	8167	1.448	0
10	8169	1.448	0
10	8199	1.454	0
10	8201	1.454	0
10	8231	1.46	0
10	8233	1.46	0
10	8263	1.466	0
10	8265	1.466	0
10	8295	1.472	0
10	8297	1.472	0
10	8327	1.478	0
10	8329	1.478	0
10	8359	1.484	0
10	8361	1.484	0
10	8391	1.49	0
10	8393	1.49	0
10	8423	1.496	0
10	8425	1.496	0
10	8455	1.502	0
10	8457	1.502	0
10	8487	1.508	0
10	8489	1.508	0
10	8519	1.514	0
10	8521	1.514	0
10	8551	1.52	0
10	8553	1.52	0
10	8583	1.526	0
10	8585	1.526	0
10	8615	1.532	0
10	8617	1.532	0
10	8647	1.538	0
10	8649	1.538	0
10	8679	1.544	0
10	8681	1.544	0
10	8711	1.55	0
10	8713	1.55	0
10	8743	1.556	0
10	8745	1.556	0
10	8775	1.562	0
10	8777	1.562	0
10	8807	1.568	0
10	8809	1.568	0
10	8839	1.574	0
10	8841	1.574	0
10	8871	1.58	0
10	8873	1.58	0
10	8903	1.586	0
10	8905	1.586	0
10	8935	1.592	0
10	8937	1.592	0
10	8967	1.598	0
10	8969	1.598	0
10	8999	1.604	0
10	9001	1.604	0
10	9031	1.61	0
10	9033	1.61	0
10	9063	1.616	0
10	9065	1.616	0
10	9095	1.622	0
10	9097	1.622	0
10	9127	1.628	0
10	9129	1.628	0
10	9159	1.634	0
10	9161	1.634	0
10	9191	1.64	0
10	9193	1.64	0
10	9223	1.646	0
10	9225	1.646	0
10	9255	1.652	0
10	9257	1.652	0
10	9287	1.658	0
10	9289	1.658	0
10	9319	1.664	0
10	9321	1.664	0
10	9351	1.67	0
10	9353	1.67	0
10	9383	1.676	0
10	9385	1.676	0
10	9415	1.682	0
10	9417	1.682	0
10	9447	1.688	0
10	9449	1.688	0
10	9479	1.694	0
10	9481	1.694	0
10	9511	1.7	0
10	9513	1.7	0
10	9543	1.706	0
10	9545	1.706	0
10	9575	1.712	0
10	9577	1.712	0
10	9607	1.718	0
10	9609	1.718	0
10	9639	1.724	0
10	9641	1.724	0
10	9671	1.73	0
10	9673	1.73	0
10	9703	1.736	0
10	9705	1.736	0
10	9735	1.742	0
10	9737	1.742	0
10	9767	1.748	0
10	9769	1.748	0
10	9799	1.754	0
10	9801	1.754	0
10	9831	1.76	0
10	9833	1.76	0
10	9863	1.766	0
10	9865	1.766	0
10	9895	1.772	0
10	9897	1.772	0
10	9927	1.778	0
10	9929	1.778	0
10	9959	1.784	0
10	9961	1.784	0
10	9991	1.79	0
10	9993	1.79	0
10	10023	1.796	0
10	10025	1.796	0
10	10055	1.802	0
10	10057	1.802	0
10	10087	1.808	0
10	10089	1.808	0
10	10119	1.814	0
10	10121	1.814	0
10	10151	1.82	0
10	10153	1.82	0
10	10183	1.826	0
10	10185	1.826	0
10	10215	1.832	0
10	10217	1.832	0
10	10247	1.838	0
10	10249	1.838	0
10	10279	1.844	0
10	10281	1.844	0
10	10311	1.85	0
10	10313	1.85	0
10	10343	1.856	0
10	10345	1.856	0
10	10375	1.862	0
10	10377	1.862	0
10	10407	1.868	0
10	10409	1.868	0
10	10439	1.874	0
10	10441	1.874	0
10	10471	1.88	0
10	10473	1.88	0
10	10503	1.886	0
10	10505	1.886	0
10	10535	1.892	0
10	10537	1.892	0
10	10567	1.898	0
10	10569	1.898	0
10	10599	1.904	0
10	10601	1.904	0
10	10631	1.91	0
10	10633	1.91	0
10	10663	1.916	0
10	10665	1.916	0
10	10695	1.922	0
10	10697	1.922	0
10	10727	1.928	0
10	10729	1.928	0
10	10759	1.934	0
10	10761	1.934	0
10	10791	1.94	0
10	10793	1.94	0
10	10823	1.946	0
10	10825	1.946	0
10	10855	1.952	0
10	10857	1.952	0
10	10887	1.958	0
10	10889	1.958	0
10	10919	1.964	0
10	10921	1.964	0
10	10951	1.97	0
10	10953	1.97	0
10	10983	1.976	0
10	10985	1.976	0
10	11015	1.982	0
10	11017	1.982	0
10	11047	1.988	0
10	11049	1.988	0
10	11079	1.994	0
10	11081	1.994	0
10	11111	2	0
10	11113	2	0
10	11143	2.006	0
10	11145	2.006	0
10	11175	2.012	0
10	11177	2.012	0
10	11207	2.018	0
10	11209	2.018	0
10	11239	2.024	0
10	11241	2.024	0
10	11271	2.03	0
10	11273	2.03	0
10	11303	2.036	0
10	11305	2.036	0
10	11335	2.042	0
10	11337	2.042	0
10	11367	2.048	0
10	11369	2.048	0
10	11399	2.054	0
10	11401	2.054	0
10	11431	2.06	0
10	11433	2.06	0
10	11463	2.066	0
10	11465	2.066	0
10	11495	2.072	0
10	11497	2.072	0
10	11527	2.078	0
10	11529	2.078	0
10	11559	2.084	0
10	11561	2.084	0
10	11591	2.09	0
10	11593	2.09	0
10	11623	2.096	0
10	11625	2.096	0
10	11655	2.102	0
10	11657	2.102	0
10	11687	2.108	0
10	11689	2.108	0
10	11719	2.114	0
10	11721	2.114	0
10	11751	2.12	0
10	11753	2.12	0
10	11783	2.126	0
10	11785	2.126	0
10	11815	2.132	0
10	11817	2.132	0
10	11847	2.138	0
10	11849	2.138	0
10	11879	2.144	0
10	11881	2.144	0
10	11911	2.15	0
10	11913	2.15	0
10	11943	2.156	0
10	11945	2.156	0
10	11975	2.162	0
10	11977	2.162	0
10	12007	2.168	0
10	12009	2.168	0
10	12039	2.174	0
10	12041	2.174	0
10	12071	2.18	0
10	12073	2.18	0
10	12103	2.186	0
10	12105	2.186	0
10	12135	2.192	0
10	12137	2.192	0
10	12167	2.198	0
10	12169	2.198	0
10	12199	2.204	0
10	12201	2.204	0
10	12231	2.21	0
10	12233	2.21	0
10	12263	2.216	0
10	12265	2.216	0
10	12295	2.222	0
10	12297	2.222	0
10	12327	2.228	0
10	12329	2.228	0
10	12359	2.234	0
10	12361	2.234	0
10	12391	2.24	0
10	12393	2.24	0
10	12423	2.246	0
10	12425	2.246	0
10	12455	2.252	0
10	12457	2.252	0
10	12487	2.258	0
10	12489	2.258	0
10	12519	2.264	0
10	12521	2.264	0
10	12551	2.27	0
10	12553	2.27	0
10	12583	2.276	0
10	12585	2.276	0
10	12615	2.282	0
10	12617	2.282	0
10	12647	2.288	0
10	12649	2.288	0
10	12679	2.294	0
10	12681	2.294	0
10	12711	2.3	0
10	12713	2.3	0
10	12743	2.306	0
10	12745	2.306	0
10	12775	2.312	0
10	12777	2.312	0
10	12807	2.318	0
10	12809	2.318	0
10	12839	2.324	0
10	12841	2.324	0
10	12871	2.33	0
10	12873	2.33	0
10	12903	2.336	0
10	12905	2.336	0
10	12935	2.342	0
10	12937	2.342	0
10	12967	2.348	0
10	12969	2.348	0
10	12999	2.354	0
10	13001	2.354	0
10	13031	2.36	0
10	13033	2.36	0
10	13063	2.366	0
10	13065	2.366	0
10	13095	2.372	0
10	13097	2.372	0
10	13127	2.378	0
10	13129	2.378	0
10	13159	2.384	0
10	13161	2.384	0
10	13191	2.39	0
10	13193	2.39	0
10	13223	2.396	0
10	13225	2.396	0
10	13255	2.402	0
10	13257	2.402	0
10	13287	2.408	0
10	13289	2.408	0
10	13319	2.414	0
10	13321	2.414	0
10	13351	2.42	0
10	13353	2.42	0
10	13383	2.426	0
10	13385	2.426	0
10	13415	2.432	0
10	13417	2.432	0
10	13447	2.438	0
10	13449	2.438	0
10	13479	2.444	0
10	13481	2.444	0
10	13511	2.45	0
10	13513	2.45	0
10	13543	2.456	0
10	13545	2.456	0
10	13575	2.462	0
10	13577	2.462	0
10	13607	2.468	0
10	13609	2.468	0
10	13639	2.474	0
10	13641	2.474	0
10	13671	2.48	0
10	13673	2.48	0
10	13703	2.486	0
10	13705	2.486	0
10	13735	2.492	0
10	13737	2.492	0
10	13767	2.498	0
10	13769	2.498	0
10	13799	2.504	0
10	13801	2.504	0
10	13831	2.51	0
10	13833	2.51	0
10	13863	2.516	0
10	13865	2.516	0
10	13895	2.522	0
10	13897	2.522	0
10	13927	2.528	0
10	13929	2.528	0
10	13959	2.534	0
10	13961	2.534	0
10	13991	2.54	0
10	13993	2.54	0
10	14023	2.546	0
10	14025	2.546	0
10	14055	2.552	0
10	14057	2.552	0
10	14087	2.558	0
10	14089	2.558	0
10	14119	2.564	0
10	14121	2.564	0
10	14151	2.57	0
10	14153	2.57	0
10	14183	2.576	0
10	14185	2.576	0
10	14215	2.582	0
10	14217	2.582	0
10	14247	2.588	0
10	14249	2.588	0
10	14279	2.594	0
10	14281	2.594	0
10	14311	2.6	0
10	14313	2.6	0
10	14343	2.606	0
10	14345	2.606	0
10	14375	2.612	0
10	14377	2.612	0
10	14407	2.618	0
10	14409	2.618	0
10	14439	2.624	0
10	14441	2.624	0
10	14471	2.63	0
10	14473	2.63	0
10	14503	2.636	0
10	14505	2.636	0
10	14535	2.642	0
10	14537	2.642	0
10	14567	2.648	0
10	14569	2.648	0
10	14599	2.654	0
10	14601	2.654	0
10	14631	2.66	0
10	14633	2.66	0
10	14663	2.666	0
10	14665	2.666	0
10	14695	2.672	0
10	14697	2.672	0
10	14727	2.678	0
10	14729	2.678	0
10	14759	2.684	0
10	14761	2.684	0
10	14791	2.69	0
10	14793	2.69	0
10	14823	2.696	0
10	14825	2.696	0
10	14855	2.702	0
10	14857	2.702	0
10	14887	2.708	0
10	14889	2.708	0
10	14919	2.714	0
10	14921	2.714	0
10	14951	2.72	0
10	14953	2.72	0
10	14983	2.726	0
10	14985	2.726	0
10	15015	2.732	0
10	15017	2.732	0
10	15047	2.738	0
10	15049	2.738	0
10	15079	2.744	0
10	15081	2.744	0
10	15111	2.75	0
10	15113	2.75	0
10	15143	2.756	0
10	15145	2.756	0
10	15175	2.762	0
10	15177	2.762	0
10	15207	2.768	0
10	15209	2.768	0
10	15239	2.774	0
10	15241	2.774	0
10	15271	2.78	0
10	15273	2.78	0
10	15303	2.786	0
10	15305	2.786	0
10	15335	2.792	0
10	15337	2.792	0
10	15367	2.798	0
10	15369	2.798	0
10	15399	2.804	0
10	15401	2.804	0
10	15431	2.81	0
10	15433	2.81	0
10	15463	2.816	0
10	15465	2.816	0
10	15495	2.822	0
10	15497	2.822	0
10	15527	2.828	0
10	15529	2.828	0
10	15559	2.834	0
10	15561	2.834	0
10	15591	2.84	0
10	15593	2.84	0
10	15623	2.846	0
10	15625	2.846	0
10	15655	2.852	0
10	15657	2.852	0
10	15687	2.858	0
10	15689	2.858	0
10	15719	2.864	0
10	15721	2.864	0
10	15751	2.87	0
10	15753	2.87	0
10	15783	2.876	0
10	15785	2.876	0
10	15815	2.882	0
10	15817	2.882	0
10	15847	2.888	0
10	15849	2.888	0
10	15879	2.894	0
10	15881	2.894	0
10	15911	2.9	0
10	15913	2.9	0
10	15943	2.906	0
10	15945	2.906	0
10	15975	2.912	0
10	15977	2.912	0
10	16007	2.918	0
10	16009	2.918	0
10	16039	2.924	0
10	16041	2.924	0
10	16071	2.93	0
10	16073	2.93	0
10	16103	2.936	0
10	16105	2.936	0
10	16135	2.942	0
10	16137	2.942	0
10	16167	2.948	0
10	16169	2.948	0
10	16199	2.954	0
10	16201	2.954	0
10	16231	2.96	0
10	16233	2.96	0
10	16263	2.966	0
10	16265	2.966	0
10	16295	2.972	0
10	16297	2.972	0
10	16327	2.978	0
10	16329	2.978	0
10	16359	2.984	0
10	16361	2.984	0
10	16391	2.99	0
10	16393	2.99	0
10	16423	2.996	0
10	16425	2.996	0
10	16455	3.002	0
10	16457	3.002	0
10	16487	3.008	0
10	16489	3.008	0
10	16519	3.014	0
10	16521	3.014	0
10	16551	3.02	0
10	16553	3.02	0
10	16583	3.026	0
10	16585	3.026	0
10	16615	3.032	0
10	16617	3.032	0
10	16647	3.038	0
10	16649	3.038	0
10	16679	3.044	0
10	16681	3.044	0
10	16711	3.05	0
10	16713	3.05	0
10	16743	3.056	0
10	16745	3.056	0
10	16775	3.062	0
10	16777	3.062	0
10	16807	3.068	0
10	16809	3.068	0
10	16839	3.074	0
10	16841	3.074	0
10	16871	3.08	0
10	16873	3.08	0
10	16903	3.086	0
10	16905	3.086	0
10	16935	3.092	0
10	16937	3.092	0
10	16967	3.098	0
10	16969	3.098	0
10	16999	3.104	0
10	17001	3.104	0
10	17031	3.11	0
10	17033	3.11	0
10	17063	3.116	0
10	17065	3.116	0
10	17095	3.122	0
10	17097	3.122	0
10	17127	3.128	0
10	17129	3.128	0
10	17159	3.134	0
10	17161	3.134	0
10	17191	3.14	0
10	17193	3.14	0
10	17223	3.146	0
10	17225	3.146	0
10	17255	3.152	0
10	17257	3.152	0
10	17287	3.158	0
10	17289	3.158	0
10	17319	3.164	0
10	17321	3.164	0
10	17351	3.17	0
10	17353	3.17	0
10	17383	3.176	0
10	17385	3.176	0
10	17415	3.182	0
10	17417	3.182	0
10	17447	3.188	0
10	17449	3.188	0
10	17479	3.194	0
10	17481	3.194	0
10	17511	3.2	0
10	17513	3.2	0
10	17543	3.206	0
10	17545	3.206	0
10	17575	3.212	0
10	17577	3.212	0
10	17607	3.218	0
10	17609	3.218	0
10	17639	3.224	0
10	17641	3.224	0
10	17671	3.23	0
10	17673	3.23	0
10	17703	3.236	0
10	17705	3.236	0
10	17735	3.242	0
10	17737	3.242	0
10	17767	3.248	0
10	17769	3.248	0
10	17799	3.254	0
10	17801	3.254	0
10	17831	3.26	0
10	17833	3.26	0
10	17863	3.266	0
10	17865	3.266	0
10	17895	3.272	0
10	17897	3.272	0
10	17927	3.278	0
10	17929	3.278	0
10	17959	3.284	0
10	17961	3.284	0
10	17991	3.29	0
10	17993	3.29	0
10	18023	3.296	0
10	18025	3.296	0
10	18055	3.302	0
10	18057	3.302	0
10	18087	3.308	0
10	18089	3.308	0
10	18119	3.314	0
10	18121	3.314	0
10	18151	3.32	0
10	18153	3.32	0
10	18183	3.326	0
10	18185	3.326	0
10	18215	3.332	0
10	18217	3.332	0
10	18247	3.338	0
10	18249	3.338	0
10	18279	3.344	0
10	18281	3.344	0
10	18311	3.35	0
10	18313	3.35	0
10	18343	3.356	0
10	18345	3.356	0
10	18375	3.362	0
10	18377	3.362	0
10	18407	3.368	0
10	18409	3.368	0
10	18439	3.374	0
10	18441	3.374	0
10	18471	3.38	0
10	18473	3.38	0
10	18503	3.386	0
10	18505	3.386	0
10	18535	3.392	0
10	18537	3.392	0
10	18567	3.398	0
10	18569	3.398	0
10	18599	3.404	0
10	18601	3.404	0
10	18631	3.41	0
10	18633	3.41	0
10	18663	3.416	0
10	18665	3.416	0
10	18695	3.422	0
10	18697	3.422	0
10	18727	3.428	0
10	18729	3.428	0
10	18759	3.434	0
10	18761	3.434	0
10	18791	3.44	0
10	18793	3.44	0
10	18823	3.446	0
10	18825	3.446	0
10	18855	3.452	0
10	18857	3.452	0
10	18887	3.458	0
10	18889	3.458	0
10	18919	3.464	0
10	18921	3.464	0
10	18951	3.47	0
10	18953	3.47	0
10	18983	3.476	0
10	18985	3.476	0
10	19015	3.482	0
10	19017	3.482	0
10	19047	3.488	0
10	19049	3.488	0
10	19079	3.494	0
10	19081	3.494	0
10	19111	3.5	0
10	19113	3.5	0
10	19143	3.506	0
10	19145	3.506	0
10	19175	3.512	0
10	19177	3.512	0
10	19207	3.518	0
10	19209	3.518	0
10	19239	3.524	0
10	19241	3.524	0
10	19271	3.53	0
10	19273	3.53	0
10	19303	3.536	0
10	19305	3.536	0
10	19335	3.542	0
10	19337	3.542	0
10	19367	3.548	0
10	19369	3.548	0
10	19399	3.554	0
10	19401	3.554	0
10	19431	3.56	0
10	19433	3.56	0
10	19463	3.566	0
10	19465	3.566	0
10	19495	3.572	0
10	19497	3.572	0
10	19527	3.578	0
10	19529	3.578	0
10	19559	3.584	0
10	19561	3.584	0
10	19591	3.59	0
10	19593	3.59	0
10	19623	3.596	0
10	19625	3.596	0
10	19655	3.602	0
10	19657	3.602	0
10	19687	3.608	0
10	19689	3.608	0
10	19719	3.614	0
10	19721	3.614	0
10	19751	3.62	0
10	19753	3.62	0
10	19783	3.626	0
10	19785	3.626	0
10	19815	3.632	0
10	19817	3.632	0
10	19847	3.638	0
10	19849	3.638	0
10	19879	3.644	0
10	19881	3.644	0
10	19911	3.65	0
10	19913	3.65	0
10	19943	3.656	0
10	19945	3.656	0
10	19975	3.662	0
10	19977	3.662	0
10	20007	3.668	0
10	20009	3.668	0
10	20039	3.674	0
10	20041	3.674	0
10	20071	3.68	0
10	20073	3.68	0
10	20103	3.686	0
10	20105	3.686	0
10	20135	3.692	0
10	20137	3.692	0
10	20167	3.698	0
10	20169	3.698	0
10	20199	3.704	0
10	20201	3.704	0
10	20231	3.71	0
10	20233	3.71	0
10	20263	3.716	0
10	20265	3.716	0
10	20295	3.722	0
10	20297	3.722	0
10	20327	3.728	0
10	20329	3.728	0
10	20359	3.734	0
10	20361	3.734	0
10	20391	3.74	0
10	20393	3.74	0
10	20423	3.746	0
10	20425	3.746	0
10	20455	3.752	0
10	20457	3.752	0
10	20487	3.758	0
10	20489	3.758	0
10	20519	3.764	0
10	20521	3.764	0
10	20551	3.77	0
10	20553	3.77	0
10	20583	3.776	0
10	20585	3.776	0
10	20615	3.782	0
10	20617	3.782	0
10	20647	3.788	0
10	20649	3.788	0
10	20679	3.794	0
10	20681	3.794	0
10	20711	3.8	0
10	20713	3.8	0
10	20743	3.806	0
10	20745	3.806	0
10	20775	3.812	0
10	20777	3.812	0
10	20807	3.818	0
10	20809	3.818	0
10	20839	3.824	0
10	20841	3.824	0
10	20871	3.83	0
10	20873	3.83	0
10	20903	3.836	0
10	20905	3.836	0
10	20935	3.842	0
10	20937	3.842	0
10	20967	3.848	0
10	20969	3.848	0
10	20999	3.854	0
10	21001	3.854	0
10	21031	3.86	0
10	21033	3.86	0
10	21063	3.866	0
10	21065	3.866	0
10	21095	3.872	0
10	21097	3.872	0
10	21127	3.878	0
10	21129	3.878	0
10	21159	3.884	0
10	21161	3.884	0
10	21191	3.89	0
10	21193	3.89	0
10	21223	3.896	0
10	21225	3.896	0
10	21255	3.902	0
10	21257	3.902	0
10	21287	3.908	0
10	21289	3.908	0
10	21319	3.914	0
10	21321	3.914	0
10	21351	3.92	0
10	21353	3.92	0
10	21383	3.926	0
10	21385	3.926	0
10	21415	3.932	0
10	21417	3.932	0
10	21447	3.938	0
10	21449	3.938	0
10	21479	3.944	0
10	21481	3.944	0
10	21511	3.95	0
10	21513	3.95	0
10	21543	3.956	0
10	21545	3.956	0
10	21575	3.962	0
10	21577	3.962	0
10	21607	3.968	0
10	21609	3.968	0
10	21639	3.974	0
10	21641	3.974	0
10	21671	3.98	0
10	21673	3.98	0
10	21703	3.986	0
10	21705	3.986	0
10	21735	3.992	0
10	21737	3.992	0
10	21767	3.998	0
10	21769	3.998	0
10	21799	4.004	0
10	21801	4.004	0
10	21831	4.01	0
10	21833	4.01	0
10	21863	4.016	0
10	21865	4.016	0
10	21895	4.022	0
10	21897	4.022	0
10	21927	4.028	0
10	21929	4.028	0
10	21959	4.034	0
10	21961	4.034	0
10	21991	4.04	0
10	21993	4.04	0
10	22023	4.046	0
10	22025	4.046	0
10	22055	4.052	0
10	22057	4.052	0
10	22087	4.058	0
10	22089	4.058	0
10	22119	4.064	0
10	22121	4.064	0
10	22151	4.07	0
10	22153	4.07	0
10	22183	4.076	0
10	22185	4.076	0
10	22215	4.082	0
10	22217	4.082	0
10	22247	4.088	0
10	22249	4.088	0
10	22279	4.094	0
10	22281	4.094	0
10	22311	4.1	0
10	22313	4.1	0
10	22343	4.106	0
10	22345	4.106	0
10	22375	4.112	0
10	22377	4.112	0
10	22407	4.118	0
10	22409	4.118	0
10	22439	4.124	0
10	22441	4.124	0
10	22471	4.13	0
10	22473	4.13	0
10	22503	4.136	0
10	22505	4.136	0
10	22535	4.142	0
10	22537	4.142	0
10	22567	4.148	0
10	22569	4.148	0
10	22599	4.154	0
10	22601	4.154	0
10	22631	4.16	0
10	22633	4.16	0
10	22663	4.166	0
10	22665	4.166	0
10	22695	4.172	0
10	22697	4.172	0
10	22727	4.178	0
10	22729	4.178	0
10	22759	4.184	0
10	22761	4.184	0
10	22791	4.19	0
10	22793	4.19	0
10	22823	4.196	0
10	22825	4.196	0
10	22855	4.202	0
10	22857	4.202	0
10	22887	4.208	0
10	22889	4.208	0
10	22919	4.214	0
10	22921	4.214	0
10	22951	4.22	0
10	22953	4.22	0
10	22983	4.226	0
10	22985	4.226	0
10	23015	4.232	0
10	23017	4.232	0
10	23047	4.238	0
10	23049	4.238	0
10	23079	4.244	0
10	23081	4.244	0
10	23111	4.25	0
10	23113	4.25	0
10	23143	4.256	0
10	23145	4.256	0
10	23175	4.262	0
10	23177	4.262	0
10	23207	4.268	0
10	23209	4.268	0
10	23239	4.274	0
10	23241	4.274	0
10	23271	4.28	0
10	23273	4.28	0
10	23303	4.286	0
10	23305	4.286	0
10	23335	4.292	0
10	23337	4.292	0
10	23367	4.298	0
10	23369	4.298	0
10	23399	4.304	0
10	23401	4.304	0
10	23431	4.31	0
10	23433	4.31	0
10	23463	4.316	0
10	23465	4.316	0
10	23495	4.322	0
10	23497	4.322	0
10	23527	4.328	0
10	23529	4.328	0
10	23559	4.334	0
10	23561	4.334	0
10	23591	4.34	0
10	23593	4.34	0
10	23623	4.346	0
10	23625	4.346	0
10	23655	4.352	0
10	23657	4.352	0
10	23687	4.358	0
10	23689	4.358	0
10	23719	4.364	0
10	23721	4.364	0
10	23751	4.37	0
10	23753	4.37	0
10	23783	4.376	0
10	23785	4.376	0
10	23815	4.382	0
10	23817	4.382	0
10	23847	4.388	0
10	23849	4.388	0
10	23879	4.394	0
10	23881	4.394	0
10	23911	4.4	0
10	23913	4.4	0
10	23943	4.406	0
10	23945	4.406	0
10	23975	4.412	0
10	23977	4.412	0
10	24007	4.418	0
10	24009	4.418	0
10	24039	4.424	0
10	24041	4.424	0
10	24071	4.43	0
10	24073	4.43	0
10	24103	4.436	0
10	24105	4.436	0
10	24135	4.442	0
10	24137	4.442	0
10	24167	4.448	0
10	24169	4.448	0
10	24199	4.454	0
10	24201	4.454	0
10	24231	4.46	0
10	24233	4.46	0
10	24263	4.466	0
10	24265	4.466	0
10	24295	4.472	0
10	24297	4.472	0
10	24327	4.478	0
10	24329	4.478	0
10	24359	4.484	0
10	24361	4.484	0
10	24391	4.49	0
10	24393	4.49	0
10	24423	4.496	0
10	24425	4.496	0
10	24455	4.502	0
10	24457	4.502	0
10	24487	4.508	0
10	24489	4.508	0
10	24519	4.514	0
10	24521	4.514	0
10	24551	4.52	0
10	24553	4.52	0
10	24583	4.526	0
10	24585	4.526	0
10	24615	4.532	0
10	24617	4.532	0
10	24647	4.538	0
10	24649	4.538	0
10	24679	4.544	0
10	24681	4.544	0
10	24711	4.55	0
10	24713	4.55	0
10	24743	4.556	0
10	24745	4.556	0
10	24775	4.562	0
10	24777	4.562	0
10	24807	4.568	0
10	24809	4.568	0
10	24839	4.574	0
10	24841	4.574	0
10	24871	4.58	0
10	24873	4.58	0
10	24903	4.586	0
10	24905	4.586	0
10	24935	4.592	0
10	24937	4.592	0
10	24967	4.598	0
10	24969	4.598	0
10	24999	4.604	0
10	25001	4.604	0
10	25031	4.61	0
10	25033	4.61	0
10	25063	4.616	0
10	25065	4.616	0
10	25095	4.622	0
10	25097	4.622	0
10	25127	4.628	0
10	25129	4.628	0
10	25159	4.634	0
10	25161	4.634	0
10	25191	4.64	0
10	25193	4.64	0
10	25223	4.646	0
10	25225	4.646	0
10	25255	4.652	0
10	25257	4.652	0
10	25287	4.658	0
10	25289	4.658	0
10	25319	4.664	0
10	25321	4.664	0
10	25351	4.67	0
10	25353	4.67	0
10	25383	4.676	0
10	25385	4.676	0
10	25415	4.682	0
10	25417	4.682	0
10	25447	4.688	0
10	25449	4.688	0
10	25479	4.694	0
10	25481	4.694	0
10	25511	4.7	0
10	25513	4.7	0
10	25543	4.706	0
10	25545	4.706	0
10	25575	4.712	0
10	25577	4.712	0
10	25607	4.718	0
10	25609	4.718	0
10	25639	4.724	0
10	25641	4.724	0
10	25671	4.73	0
10	25673	4.73	0
10	25703	4.736	0
10	25705	4.736	0
10	25735	4.742	0
10	25737	4.742	0
10	25767	4.748	0
10	25769	4.748	0
10	25799	4.754	0
10	25801	4.754	0
10	25831	4.76	0
10	25833	4.76	0
10	25863	4.766	0
10	25865	4.766	0
10	25895	4.772	0
10	25897	4.772	0
10	25927	4.778	0
10	25929	4.778	0
10	25959	4.784	0
10	25961	4.784	0
10	25991	4.79	0
10	25993	4.79	0
10	26023	4.796	0
10	26025	4.796	0
10	26055	4.802	0
10	26057	4.802	0
10	26087	4.808	0
10	26089	4.808	0
10	26119	4.814	0
10	26121	4.814	0
10	26151	4.82	0
10	26153	4.82	0
10	26183	4.826	0
10	26185	4.826	0
10	26215	4.832	0
10	26217	4.832	0
10	26247	4.838	0
10	26249	4.838	0
10	26279	4.844	0
10	26281	4.844	0
10	26311	4.85	0
10	26313	4.85	0
10	26343	4.856	0
10	26345	4.856	0
10	26375	4.862	0
10	26377	4.862	0
10	26407	4.868	0
10	26409	4.868	0
10	26439	4.874	0
10	26441	4.874	0
10	26471	4.88	0
10	26473	4.88	0
10	26503	4.886	0
10	26505	4.886	0
10	26535	4.892	0
10	26537	4.892	0
10	26567	4.898	0
10	26569	4.898	0
10	26599	4.904	0
10	26601	4.904	0
10	26631	4.91	0
10	26633	4.91	0
10	26663	4.916	0
10	26665	4.916	0
10	26695	4.922	0
10	26697	4.922	0
10	26727	4.928	0
10	26729	4.928	0
10	26759	4.934	0
10	26761	4.934	0
10	26791	4.94	0
10	26793	4.94	0
10	26823	4.946	0
10	26825	4.946	0
10	26855	4.952	0
10	26857	4.952	0
10	26887	4.958	0
10	26889	4.958	0
10	26919	4.964	0
10	26921	4.964	0
10	26951	4.97	0
10	26953	4.97	0
10	26983	4.976	0
10	26985	4.976	0
10	27015	4.982	0
10	27017	4.982	0
10	27047	4.988	0
10	27049	4.988	0
10	27079	4.994	0
10	27081	4.994	0
10	27111	5	0
10	27113	5	0
10	27143	5.006	0
10	27145	5.006	0
10	27175	5.012	0
10	27177	5.012	0
10	27207	5.018	0
10	27209	5.018	0
10	27239	5.024	0
10	27241	5.024	0
10	27271	5.03	0
10	27273	5.03	0
10	27303	5.036	0
10	27305	5.036	0
10	27335	5.042	0
10	27337	5.042	0
10	27367	5.048	0
10	27369	5.048	0
10	27399	5.054	0
10	27401	5.054	0
10	27431	5.06	0
10	27433	5.06	0
10	27463	5.066	0
10	27465	5.066	0
10	27495	5.072	0
10	27497	5.072	0
10	27527	5.078	0
10	27529	5.078	0
10	27559	5.084	0
10	27561	5.084	0
10	27591	5.09	0
10	27593	5.09	0
10	27623	5.096	0
10	27625	5.096	0
10	27655	5.102	0
10	27657	5.102	0
10	27687	5.108	0
10	27689	5.108	0
10	27719	5.114	0
10	27721	5.114	0
10	27751	5.12	0
10	27753	5.12	0
10	27783	5.126	0
10	27785	5.126	0
10	27815	5.132	0
10	27817	5.132	0
10	27847	5.138	0
10	27849	5.138	0
10	27879	5.144	0
10	27881	5.144	0
10	27911	5.15	0
10	27913	5.15	0
10	27943	5.156	0
10	27945	5.156	0
10	27975	5.162	0
10	27977	5.162	0
10	28007	5.168	0
10	28009	5.168	0
10	28039	5.174	0
10	28041	5.174	0
10	28071	5.18	0
10	28073	5.18	0
10	28103	5.186	0
10	28105	5.186	0
10	28135	5.192	0
10	28137	5.192	0
10	28167	5.198	0
10	28169	5.198	0
10	28199	5.204	0
10	28201	5.204	0
10	28231	5.21	0
10	28233	5.21	0
10	28263	5.216	0
10	28265	5.216	0
10	28295	5.222	0
10	28297	5.222	0
10	28327	5.228	0
10	28329	5.228	0
10	28359	5.234	0
10	28361	5.234	0
10	28391	5.24	0
10	28393	5.24	0
10	28423	5.246	0
10	28425	5.246	0
10	28455	5.252	0
10	28457	5.252	0
10	28487	5.258	0
10	28489	5.258	0
10	28519	5.264	0
10	28521	5.264	0
10	28551	5.27	0
10	28553	5.27	0
10	28583	5.276	0
10	28585	5.276	0
10	28615	5.282	0
10	28617	5.282	0
10	28647	5.288	0
10	28649	5.288	0
10	28679	5.294	0
10	28681	5.294	0
10	28711	5.3	0
10	28713	5.3	0
10	28743	5.306	0
10	28745	5.306	0
10	28775	5.312	0
10	28777	5.312	0
10	28807	5.318	0
10	28809	5.318	0
10	28839	5.324	0
10	28841	5.324	0
10	28871	5.33	0
10	28873	5.33	0
10	28903	5.336	0
10	28905	5.336	0
10	28935	5.342	0
10	28937	5.342	0
10	28967	5.348	0
10	28969	5.348	0
10	28999	5.354	0
10	29001	5.354	0
10	29031	5.36	0
10	29033	5.36	0
10	29063	5.366	0
10	29065	5.366	0
10	29095	5.372	0
10	29097	5.372	0
10	29127	5.378	0
10	29129	5.378	0
10	29159	5.384	0
10	29161	5.384	0
10	29191	5.39	0
10	29193	5.39	0
10	29223	5.396	0
10	29225	5.396	0
10	29255	5.402	0
10	29257	5.402	0
10	29287	5.408	0
10	29289	5.408	0
10	29319	5.414	0
10	29321	5.414	0
10	29351	5.42	0
10	29353	5.42	0
10	29383	5.426	0
10	29385	5.426	0
10	29415	5.432	0
10	29417	5.432	0
10	29447	5.438	0
10	29449	5.438	0
10	29479	5.444	0
10	29481	5.444	0
10	29511	5.45	0
10	29513	5.45	0
10	29543	5.456	0
10	29545	5.456	0
10	29575	5.462	0
10	29577	5.462	0
10	29607	5.468	0
10	29609	5.468	0
10	29639	5.474	0
10	29641	5.474	0
10	29671	5.48	0
10	29673	5.48	0
10	29703	5.486	0
10	29705	5.486	0
10	29735	5.492	0
10	29737	5.492	0
10	29767	5.498	0
10	29769	5.498	0
10	29799	5.504	0
10	29801	5.504	0
10	29831	5.51	0
10	29833	5.51	0
10	29863	5.516	0
10	29865	5.516	0
10	29895	5.522	0
10	29897	5.522	0
10	29927	5.528	0
10	29929	5.528	0
10	29959	5.534	0
10	29961	5.534	0
10	29991	5.54	0
10	29993	5.54	0
10	30023	5.546	0
10	30025	5.546	0
10	30055	5.552	0
10	30057	5.552	0
10	30087	5.558	0
10	30089	5.558	0
10	30119	5.564	0
10	30121	5.564	0
10	30151	5.57	0
10	30153	5.57	0
10	30183	5.576	0
10	30185	5.576	0
10	30215	5.582	0
10	30217	5.582	0
10	30247	5.588	0
10	30249	5.588	0
10	30279	5.594	0
10	30281	5.594	0
10	30311	5.6	0
10	30313	5.6	0
10	30343	5.606	0
10	30345	5.606	0
10	30375	5.612	0
10	30377	5.612	0
10	30407	5.618	0
10	30409	5.618	0
10	30439	5.624	0
10	30441	5.624	0
10	30471	5.63	0
10	30473	5.63	0
10	30503	5.636	0
10	30505	5.636	0
10	30535	5.642	0
10	30537	5.642	0
10	30567	5.648	0
10	30569	5.648	0
10	30599	5.654	0
10	30601	5.654	0
10	30631	5.66	0
10	30633	5.66	0
10	30663	5.666	0
10	30665	5.666	0
10	30695	5.672	0
10	30697	5.672	0
10	30727	5.678	0
10	30729	5.678	0
10	30759	5.684	0
10	30761	5.684	0
10	30791	5.69	0
10	30793	5.69	0
10	30823	5.696	0
10	30825	5.696	0
10	30855	5.702	0
10	30857	5.702	0
10	30887	5.708	0
10	30889	5.708	0
10	30919	5.714	0
10	30921	5.714	0
10	30951	5.72	0
10	30953	5.72	0
10	30983	5.726	0
10	30985	5.726	0
10	31015	5.732	0
10	31017	5.732	0
10	31047	5.738	0
10	31049	5.738	0
10	31079	5.744	0
10	31081	5.744	0
10	31111	5.75	0
10	31113	5.75	0
10	31143	5.756	0
10	31145	5.756	0
10	31175	5.762	0
10	31177	5.762	0
10	31207	5.768	0
10	31209	5.768	0
10	31239	5.774	0
10	31241	5.774	0
10	31271	5.78	0
10	31273	5.78	0
10	31303	5.786	0
10	31305	5.786	0
10	31335	5.792	0
10	31337	5.792	0
10	31367	5.798	0
10	31369	5.798	0
10	31399	5.804	0
10	31401	5.804	0
10	31431	5.81	0
10	31433	5.81	0
10	31463	5.816	0
10	31465	5.816	0
10	31495	5.822	0
10	31497	5.822	0
10	31527	5.828	0
10	31529	5.828	0
10	31559	5.834	0
10	31561	5.834	0
10	31591	5.84	0
10	31593	5.84	0
10	31623	5.846	0
10	31625	5.846	0
10	31655	5.852	0
10	31657	5.852	0
10	31687	5.858	0
10	31689	5.858	0
10	31719	5.864	0
10	31721	5.864	0
10	31751	5.87	0
10	31753	5.87	0
10	31783	5.876	0
10	31785	5.876	0
10	31815	5.882	0
10	31817	5.882	0
10	31847	5.888	0
10	31849	5.888	0
10	31879	5.894	0
10	31881	5.894	0
10	31911	5.9	0
10	31913	5.9	0
10	31943	5.906	0
10	31945	5.906	0
10	31975	5.912	0
10	31977	5.912	0
10	32007	5.918	0
10	32009	5.918	0
10	32039	5.924	0
10	32041	5.924	0
10	32071	5.93	0
10	32073	5.93	0
10	32103	5.936	0
10	32105	5.936	0
10	32135	5.942	0
10	32137	5.942	0
10	32167	5.948	0
10	32169	5.948	0
10	32199	5.954	0
10	32201	5.954	0
10	32231	5.96	0
10	32233	5.96	0
10	32263	5.966	0
10	32265	5.966	0
10	32295	5.972	0
10	32297	5.972	0
10	32327	5.978	0
10	32329	5.978	0
10	32359	5.984	0
10	32361	5.984	0
10	32391	5.99	0
10	32393	5.99	0
10	32423	5.996	0
10	32425	5.996	0
10	32455	6.002	0
10	32457	6.002	0
10	32487	6.008	0
10	32489	6.008	0
10	32519	6.014	0
10	32521	6.014	0
10	32551	6.02	0
10	32553	6.02	0
10	32583	6.026	0
10	32585	6.026	0
10	32615	6.032	0
10	32617	6.032	0
10	32647	6.038	0
10	32649	6.038	0
10	32679	6.044	0
10	32681	6.044	0
10	32711	6.05	0
10	32713	6.05	0
10	32743	6.056	0
10	32745	6.056	0
10	32775	6.062	0
10	32777	6.062	0
10	32807	6.068	0
10	32809	6.068	0
10	32839	6.074	0
10	32841	6.074	0
10	32871	6.08	0
10	32873	6.08	0
10	32903	6.086	0
10	32905	6.086	0
10	32935	6.092	0
10	32937	6.092	0
10	32967	6.098	0
10	32969	6.098	0
10	32999	6.104	0
10	33001	6.104	0
10	33031	6.11	0
10	33033	6.11	0
10	33063	6.116	0
10	33065	6.116	0
10	33095	6.122	0
10	33097	6.122	0
10	33127	6.128	0
10	33129	6.128	0
10	33159	6.134	0
10	33161	6.134	0
10	33191	6.14	0
10	33193	6.14	0
10	33223	6.146	0
10	33225	6.146	0
10	33255	6.152	0
10	33257	6.152	0
10	33287	6.158	0
10	33289	6.158	0
10	33319	6.164	0
10	33321	6.164	0
10	33351	6.17	0
10	33353	6.17	0
10	33383	6.176	0
10	33385	6.176	0
10	33415	6.182	0
10	33417	6.182	0
10	33447	6.188	0
10	33449	6.188	0
10	33479	6.194	0
10	33481	6.194	0
10	33511	6.2	0
10	33513	6.2	0
10	33543	6.206	0
10	33545	6.206	0
10	33575	6.212	0
10	33577	6.212	0
10	33607	6.218	0
10	33609	6.218	0
10	33639	6.224	0
10	33641	6.224	0
10	33671	6.23	0
10	33673	6.23	0
10	33703	6.236	0
10	33705	6.236	0
10	33735	6.242	0
10	33737	6.242	0
10	33767	6.248	0
10	33769	6.248	0
10	33799	6.254	0
10	33801	6.254	0
10	33831	6.26	0
10	33833	6.26	0
10	33863	6.266	0
10	33865	6.266	0
10	33895	6.272	0
10	33897	6.272	0
10	33927	6.278	0
10	33929	6.278	0
10	33959	6.284	0
10	33961	6.284	0
10	33991	6.29	0
10	33993	6.29	0
10	34023	6.296	0
10	34025	6.296	0
10	34055	6.302	0
10	34057	6.302	0
10	34087	6.308	0
10	34089	6.308	0
10	34119	6.314	0
10	34121	6.314	0
10	34151	6.32	0
10	34153	6.32	0
10	34183	6.326	0
10	34185	6.326	0
10	34215	6.332	0
10	34217	6.332	0
10	34247	6.338	0
10	34249	6.338	0
10	34279	6.344	0
10	34281	6.344	0
10	34311	6.35	0
10	34313	6.35	0
10	34343	6.356	0
10	34345	6.356	0
10	34375	6.362	0
10	34377	6.362	0
10	34407	6.368	0
10	34409	6.368	0
10	34439	6.374	0
10	34441	6.374	0
10	34471	6.38	0
10	34473	6.38	0
10	34503	6.386	0
10	34505	6.386	0
10	34535	6.392	0
10	34537	6.392	0
10	34567	6.398	0
10	34569	6.398	0
10	34599	6.404	0
10	34601	6.404	0
10	34631	6.41	0
10	34633	6.41	0
10	34663	6.416	0
10	34665	6.416	0
10	34695	6.422	0
10	34697	6.422	0
10	34727	6.428	0
10	34729	6.428	0
10	34759	6.434	0
10	34761	6.434	0
10	34791	6.44	0
10	34793	6.44	0
10	34823	6.446	0
10	34825	6.446	0
10	34855	6.452	0
10	34857	6.452	0
10	34887	6.458	0
10	34889	6.458	0
10	34919	6.464	0
10	34921	6.464	0
10	34951	6.47	0
10	34953	6.47	0
10	34983	6.476	0
10	34985	6.476	0
10	35015	6.482	0
10	35017	6.482	0
10	35047	6.488	0
10	35049	6.488	0
10	35079	6.494	0
10	35081	6.494	0
10	35111	6.5	0
10	35113	6.5	0
10	35143	6.506	0
10	35145	6.506	0
10	35175	6.512	0
10	35177	6.512	0
10	35207	6.518	0
10	35209	6.518	0
10	35239	6.524	0
10	35241	6.524	0
10	35271	6.53	0
10	35273	6.53	0
10	35303	6.536	0
10	35305	6.536	0
10	35335	6.542	0
10	35337	6.542	0
10	35367	6.548	0
10	35369	6.548	0
10	35399	6.554	0
10	35401	6.554	0
10	35431	6.56	0
10	35433	6.56	0
10	35463	6.566	0
10	35465	6.566	0
10	35495	6.572	0
10	35497	6.572	0
10	35527	6.578	0
10	35529	6.578	0
10	35559	6.584	0
10	35561	6.584	0
10	35591	6.59	0
10	35593	6.59	0
10	35623	6.596	0
10	35625	6.596	0
10	35655	6.602	0
10	35657	6.602	0
10	35687	6.608	0
10	35689	6.608	0
10	35719	6.614	0
10	35721	6.614	0
10	35751	6.62	0
10	35753	6.62	0
10	35783	6.626	0
10	35785	6.626	0
10	35815	6.632	0
10	35817	6.632	0
10	35847	6.638	0
10	35849	6.638	0
10	35879	6.644	0
10	35881	6.644	0
10	35911	6.65	0
10	35913	6.65	0
10	35943	6.656	0
10	35945	6.656	0
10	35975	6.662	0
10	35977	6.662	0
10	36007	6.668	0
10	36009	6.668	0
10	36039	6.674	0
10	36041	6.674	0
10	36071	6.68	0
10	36073	6.68	0
10	36103	6.686	0
10	36105	6.686	0
10	36135	6.692	0
10	36137	6.692	0
10	36167	6.698	0
10	36169	6.698	0
10	36199	6.704	0
10	36201	6.704	0
10	36231	6.71	0
10	36233	6.71	0
10	36263	6.716	0
10	36265	6.716	0
10	36295	6.722	0
10	36297	6.722	0
10	36327	6.728	0
10	36329	6.728	0
10	36359	6.734	0
10	36361	6.734	0
10	36391	6.74	0
10	36393	6.74	0
10	36423	6.746	0
10	36425	6.746	0
10	36455	6.752	0
10	36457	6.752	0
10	36487	6.758	0
10	36489	6.758	0
10	36519	6.764	0
10	36521	6.764	0
10	36551	6.77	0
10	36553	6.77	0
10	36583	6.776	0
10	36585	6.776	0
10	36615	6.782	0
10	36617	6.782	0
10	36647	6.788	0
10	36649	6.788	0
10	36679	6.794	0
10	36681	6.794	0
10	36711	6.8	0
10	36713	6.8	0
10	36743	6.806	0
10	36745	6.806	0
10	36775	6.812	0
10	36777	6.812	0
10	36807	6.818	0
10	36809	6.818	0
10	36839	6.824	0
10	36841	6.824	0
10	36871	6.83	0
10	36873	6.83	0
10	36903	6.836	0
10	36905	6.836	0
10	36935	6.842	0
10	36937	6.842	0
10	36967	6.848	0
10	36969	6.848	0
10	36999	6.854	0
10	37001	6.854	0
10	37031	6.86	0
10	37033	6.86	0
10	37063	6.866	0
10	37065	6.866	0
10	37095	6.872	0
10	37097	6.872	0
10	37127	6.878	0
10	37129	6.878	0
10	37159	6.884	0
10	37161	6.884	0
10	37191	6.89	0
10	37193	6.89	0
10	37223	6.896	0
10	37225	6.896	0
10	37255	6.902	0
10	37257	6.902	0
10	37287	6.908	0
10	37289	6.908	0
10	37319	6.914	0
10	37321	6.914	0
10	37351	6.92	0
10	37353	6.92	0
10	37383	6.926	0
10	37385	6.926	0
10	37415	6.932	0
10	37417	6.932	0
10	37447	6.938	0
10	37449	6.938	0
10	37479	6.944	0
10	37481	6.944	0
10	37511	6.95	0
10	37513	6.95	0
10	37543	6.956	0
10	37545	6.956	0
10	37575	6.962	0
10	37577	6.962	0
10	37607	6.968	0
10	37609	6.968	0
10	37639	6.974	0
10	37641	6.974	0
10	37671	6.98	0
10	37673	6.98	0
10	37703	6.986	0
10	37705	6.986	0
10	37735	6.992	0
10	37737	6.992	0
10	37767	6.998	0
10	37769	6.998	0
10	37799	7.004	0
10	37801	7.004	0
10	37831	7.01	0
10	37833	7.01	0
10	37863	7.016	0
10	37865	7.016	0
10	37895	7.022	0
10	37897	7.022	0
10	37927	7.028	0
10	37929	7.028	0
10	37959	7.034	0
10	37961	7.034	0
10	37991	7.04	0
10	37993	7.04	0
10	38023	7.046	0
10	38025	7.046	0
10	38055	7.052	0
10	38057	7.052	0
10	38087	7.058	0
10	38089	7.058	0
10	38119	7.064	0
10	38121	7.064	0
10	38151	7.07	0
10	38153	7.07	0
10	38183	7.076	0
10	38185	7.076	0
10	38215	7.082	0
10	38217	7.082	0
10	38247	7.088	0
10	38249	7.088	0
10	38279	7.094	0
10	38281	7.094	0
10	38311	7.1	0
10	38313	7.1	0
10	38343	7.106	0
10	38345	7.106	0
10	38375	7.112	0
10	38377	7.112	0
10	38407	7.118	0
10	38409	7.118	0
10	38439	7.124	0
10	38441	7.124	0
10	38471	7.13	0
10	38473	7.13	0
10	38503	7.136	0
10	38505	7.136	0
10	38535	7.142	0
10	38537	7.142	0
10	38567	7.148	0
10	38569	7.148	0
10	38599	7.154	0
10	38601	7.154	0
10	38631	7.16	0
10	38633	7.16	0
10	38663	7.166	0
10	38665	7.166	0
10	38695	7.172	0
10	38697	7.172	0
10	38727	7.178	0
10	38729	7.178	0
10	38759	7.184	0
10	38761	7.184	0
10	38791	7.19	0
10	38793	7.19	0
10	38823	7.196	0
10	38825	7.196	0
10	38855	7.202	0
10	38857	7.202	0
10	38887	7.208	0
10	38889	7.208	0
10	38919	7.214	0
10	38921	7.214	0
10	38951	7.22	0
10	38953	7.22	0
10	38983	7.226	0
10	38985	7.226	0
10	39015	7.232	0
10	39017	7.232	0
10	39047	7.238	0
10	39049	7.238	0
10	39079	7.244	0
10	39081	7.244	0
10	39111	7.25	0
10	39113	7.25	0
10	39143	7.256	0
10	39145	7.256	0
10	39175	7.262	0
10	39177	7.262	0
10	39207	7.268	0
10	39209	7.268	0
10	39239	7.274	0
10	39241	7.274	0
10	39271	7.28	0
10	39273	7.28	0
10	39303	7.286	0
10	39305	7.286	0
10	39335	7.292	0
10	39337	7.292	0
10	39367	7.298	0
10	39369	7.298	0
10	39399	7.304	0
10	39401	7.304	0
10	39431	7.31	0
10	39433	7.31	0
10	39463	7.316	0
10	39465	7.316	0
10	39495	7.322	0
10	39497	7.322	0
10	39527	7.328	0
10	39529	7.328	0
10	39559	7.334	0
10	39561	7.334	0
10	39591	7.34	0
10	39593	7.34	0
10	39623	7.346	0
10	39625	7.346	0
10	39655	7.352	0
10	39657	7.352	0
10	39687	7.358	0
10	39689	7.358	0
10	39719	7.364	0
10	39721	7.364	0
10	39751	7.37	0
10	39753	7.37	0
10	39783	7.376	0
10	39785	7.376	0
10	39815	7.382	0
10	39817	7.382	0
10	39847	7.388	0
10	39849	7.388	0
10	39879	7.394	0
10	39881	7.394	0
10	39911	7.4	0
10	39913	7.4	0
10	39943	7.406	0
10	39945	7.406	0
10	39975	7.412	0
10	39977	7.412	0
10	40007	7.418	0
10	40009	7.418	0
10	40039	7.424	0
10	40041	7.424	0
10	40071	7.43	0
10	40073	7.43	0
10	40103	7.436	0
10	40105	7.436	0
10	40135	7.442	0
10	40137	7.442	0
10	40167	7.448	0
10	40169	7.448	0
10	40199	7.454	0
10	40201	7.454	0
10	40231	7.46	0
10	40233	7.46	0
10	40263	7.466	0
10	40265	7.466	0
10	40295	7.472	0
10	40297	7.472	0
10	40327	7.478	0
10	40329	7.478	0
10	40359	7.484	0
10	40361	7.484	0
10	40391	7.49	0
10	40393	7.49	0
10	40423	7.496	0
10	40425	7.496	0
10	40455	7.502	0
10	40457	7.502	0
10	40487	7.508	0
10	40489	7.508	0
10	40519	7.514	0
10	40521	7.514	0
10	40551	7.52	0
10	40553	7.52	0
10	40583	7.526	0
10	40585	7.526	0
10	40615	7.532	0
10	40617	7.532	0
10	40647	7.538	0
10	40649	7.538	0
10	40679	7.544	0
10	40681	7.544	0
10	40711	7.55	0
10	40713	7.55	0
10	40743	7.556	0
10	40745	7.556	0
10	40775	7.562	0
10	40777	7.562	0
10	40807	7.568	0
10	40809	7.568	0
10	40839	7.574	0
10	40841	7.574	0
10	40871	7.58	0
10	40873	7.58	0
10	40903	7.586	0
10	40905	7.586	0
10	40935	7.592	0
10	40937	7.592	0
10	40967	7.598	0
10	40969	7.598	0
10	40999	7.604	0
10	41001	7.604	0
10	41031	7.61	0
10	41033	7.61	0
10	41063	7.616	0
10	41065	7.616	0
10	41095	7.622	0
10	41097	7.622	0
10	41127	7.628	0
10	41129	7.628	0
10	41159	7.634	0
10	41161	7.634	0
10	41191	7.64	0
10	41193	7.64	0
10	41223	7.646	0
10	41225	7.646	0
10	41255	7.652	0
10	41257	7.652	0
10	41287	7.658	0
10	41289	7.658	0
10	41319	7.664	0
10	41321	7.664	0
10	41351	7.67	0
10	41353	7.67	0
10	41383	7.676	0
10	41385	7.676	0
10	41415	7.682	0
10	41417	7.682	0
10	41447	7.688	0
10	41449	7.688	0
10	41479	7.694	0
10	41481	7.694	0
10	41511	7.7	0
10	41513	7.7	0
10	41543	7.706	0
10	41545	7.706	0
10	41575	7.712	0
10	41577	7.712	0
10	41607	7.718	0
10	41609	7.718	0
10	41639	7.724	0
10	41641	7.724	0
10	41671	7.73	0
10	41673	7.73	0
10	41703	7.736	0
10	41705	7.736	0
10	41735	7.742	0
10	41737	7.742	0
10	41767	7.748	0
10	41769	7.748	0
10	41799	7.754	0
10	41801	7.754	0
10	41831	7.76	0
10	41833	7.76	0
10	41863	7.766	0
10	41865	7.766	0
10	41895	7.772	0
10	41897	7.772	0
10	41927	7.778	0
10	41929	7.778	0
10	41959	7.784	0
10	41961	7.784	0
10	41991	7.79	0
10	41993	7.79	0
10	42023	7.796	0
10	42025	7.796	0
10	42055	7.802	0
10	42057	7.802	0
10	42087	7.808	0
10	42089	7.808	0
10	42119	7.814	0
10	42121	7.814	0
10	42151	7.82	0
10	42153	7.82	0
10	42183	7.826	0
10	42185	7.826	0
10	42215	7.832	0
10	42217	7.832	0
10	42247	7.838	0
10	42249	7.838	0
10	42279	7.844	0
10	42281	7.844	0
10	42311	7.85	0
10	42313	7.85	0
10	42343	7.856	0
10	42345	7.856	0
10	42375	7.862	0
10	42377	7.862	0
10	42407	7.868	0
10	42409	7.868	0
10	42439	7.874	0
10	42441	7.874	0
10	42471	7.88	0
10	42473	7.88	0
10	42503	7.886	0
10	42505	7.886	0
10	42535	7.892	0
10	42537	7.892	0
10	42567	7.898	0
10	42569	7.898	0
10	42599	7.904	0
10	42601	7.904	0
10	42631	7.91	0
10	42633	7.91	0
10	42663	7.916	0
10	42665	7.916	0
10	42695	7.922	0
10	42697	7.922	0
10	42727	7.928	0
10	42729	7.928	0
10	42759	7.934	0
10	42761	7.934	0
10	42791	7.94	0
10	42793	7.94	0
10	42823	7.946	0
10	42825	7.946	0
10	42855	7.952	0
10	42857	7.952	0
10	42887	7.958	0
10	42889	7.958	0
10	42919	7.964	0
10	42921	7.964	0
10	42951	7.97	0
10	42953	7.97	0
10	42983	7.976	0
10	42985	7.976	0
10	43015	7.982	0
10	43017	7.982	0
10	43047	7.988	0
10	43049	7.988	0
10	43079	7.994	0
10	43081	7.994	0
10	43111	8	0
10	43113	8	0
10	43143	8.006	0
10	43145	8.006	0
10	43175	8.012	0
10	43177	8.012	0
10	43207	8.018	0
10	43209	8.018	0
10	43239	8.024	0
10	43241	8.024	0
10	43271	8.03	0
10	43273	8.03	0
10	43303	8.036	0
10	43305	8.036	0
10	43335	8.042	0
10	43337	8.042	0
10	43367	8.048	0
10	43369	8.048	0
10	43399	8.054	0
10	43401	8.054	0
10	43431	8.06	0
10	43433	8.06	0
10	43463	8.066	0
10	43465	8.066	0
10	43495	8.072	0
10	43497	8.072	0
10	43527	8.078	0
10	43529	8.078	0
10	43559	8.084	0
10	43561	8.084	0
10	43591	8.09	0
10	43593	8.09	0
10	43623	8.096	0
10	43625	8.096	0
10	43655	8.102	0
10	43657	8.102	0
10	43687	8.108	0
10	43689	8.108	0
10	43719	8.114	0
10	43721	8.114	0
10	43751	8.12	0
10	43753	8.12	0
10	43783	8.126	0
10	43785	8.126	0
10	43815	8.132	0
10	43817	8.132	0
10	43847	8.138	0
10	43849	8.138	0
10	43879	8.144	0
10	43881	8.144	0
10	43911	8.15	0
10	43913	8.15	0
10	43943	8.156	0
10	43945	8.156	0
10	43975	8.162	0
10	43977	8.162	0
10	44007	8.168	0
10	44009	8.168	0
10	44039	8.174	0
10	44041	8.174	0
10	44071	8.18	0
10	44073	8.18	0
10	44103	8.186	0
10	44105	8.186	0
10	44135	8.192	0
10	44137	8.192	0
10	44167	8.198	0
10	44169	8.198	0
10	44199	8.204	0
10	44201	8.204	0
10	44231	8.21	0
10	44233	8.21	0
10	44263	8.216	0
10	44265	8.216	0
10	44295	8.222	0
10	44297	8.222	0
10	44327	8.228	0
10	44329	8.228	0
10	44359	8.234	0
10	44361	8.234	0
10	44391	8.24	0
10	44393	8.24	0
10	44423	8.246	0
10	44425	8.246	0
10	44455	8.252	0
10	44457	8.252	0
10	44487	8.258	0
10	44489	8.258	0
10	44519	8.264	0
10	44521	8.264	0
10	44551	8.27	0
10	44553	8.27	0
10	44583	8.276	0
10	44585	8.276	0
10	44615	8.282	0
10	44617	8.282	0
10	44647	8.288	0
10	44649	8.288	0
10	44679	8.294	0
10	44681	8.294	0
10	44711	8.3	0
10	44713	8.3	0
10	44743	8.306	0
10	44745	8.306	0
10	44775	8.312	0
10	44777	8.312	0
10	44807	8.318	0
10	44809	8.318	0
10	44839	8.324	0
10	44841	8.324	0
10	44871	8.33	0
10	44873	8.33	0
10	44903	8.336	0
10	44905	8.336	0
10	44935	8.342	0
10	44937	8.342	0
10	44967	8.348	0
10	44969	8.348	0
10	44999	8.354	0
10	45001	8.354	0
10	45031	8.36	0
10	45033	8.36	0
10	45063	8.366	0
10	45065	8.366	0
10	45095	8.372	0
10	45097	8.372	0
10	45127	8.378	0
10	45129	8.378	0
10	45159	8.384	0
10	45161	8.384	0
10	45191	8.39	0
10	45193	8.39	0
10	45223	8.396	0
10	45225	8.396	0
10	45255	8.402	0
10	45257	8.402	0
10	45287	8.408	0
10	45289	8.408	0
10	45319	8.414	0
10	45321	8.414	0
10	45351	8.42	0
10	45353	8.42	0
10	45383	8.426	0
10	45385	8.426	0
10	45415	8.432	0
10	45417	8.432	0
10	45447	8.438	0
10	45449	8.438	0
10	45479	8.444	0
10	45481	8.444	0
10	45511	8.45	0
10	45513	8.45	0
10	45543	8.456	0
10	45545	8.456	0
10	45575	8.462	0
10	45577	8.462	0
10	45607	8.468	0
10	45609	8.468	0
10	45639	8.474	0
10	45641	8.474	0
10	45671	8.48	0
10	45673	8.48	0
10	45703	8.486	0
10	45705	8.486	0
10	45735	8.492	0
10	45737	8.492	0
10	45767	8.498	0
10	45769	8.498	0
10	45799	8.504	0
10	45801	8.504	0
10	45831	8.51	0
10	45833	8.51	0
10	45863	8.516	0
10	45865	8.516	0
10	45895	8.522	0
10	45897	8.522	0
10	45927	8.528	0
10	45929	8.528	0
10	45959	8.534	0
10	45961	8.534	0
10	45991	8.54	0
10	45993	8.54	0
10	46023	8.546	0
10	46025	8.546	0
10	46055	8.552	0
10	46057	8.552	0
10	46087	8.558	0
10	46089	8.558	0
10	46119	8.564	0
10	46121	8.564	0
10	46151	8.57	0
10	46153	8.57	0
10	46183	8.576	0
10	46185	8.576	0
10	46215	8.582	0
10	46217	8.582	0
10	46247	8.588	0
10	46249	8.588	0
10	46279	8.594	0
10	46281	8.594	0
10	46311	8.6	0
10	46313	8.6	0
10	46343	8.606	0
10	46345	8.606	0
10	46375	8.612	0
10	46377	8.612	0
10	46407	8.618	0
10	46409	8.618	0
10	46439	8.624	0
10	46441	8.624	0
10	46471	8.63	0
10	46473	8.63	0
10	46503	8.636	0
10	46505	8.636	0
10	46535	8.642	0
10	46537	8.642	0
10	46567	8.648	0
10	46569	8.648	0
10	46599	8.654	0
10	46601	8.654	0
10	46631	8.66	0
10	46633	8.66	0
10	46663	8.666	0
10	46665	8.666	0
10	46695	8.672	0
10	46697	8.672	0
10	46727	8.678	0
10	46729	8.678	0
10	46759	8.684	0
10	46761	8.684	0
10	46791	8.69	0
10	46793	8.69	0
10	46823	8.696	0
10	46825	8.696	0
10	46855	8.702	0
10	46857	8.702	0
10	46887	8.708	0
10	46889	8.708	0
10	46919	8.714	0
10	46921	8.714	0
10	46951	8.72	0
10	46953	8.72	0
10	46983	8.726	0
10	46985	8.726	0
10	47015	8.732	0
10	47017	8.732	0
10	47047	8.738	0
10	47049	8.738	0
10	47079	8.744	0
10	47081	8.744	0
10	47111	8.75	0
10	47113	8.75	0
10	47143	8.756	0
10	47145	8.756	0
10	47175	8.762	0
10	47177	8.762	0
10	47207	8.768	0
10	47209	8.768	0
10	47239	8.774	0
10	47241	8.774	0
10	47271	8.78	0
10	47273	8.78	0
10	47303	8.786	0
10	47305	8.786	0
10	47335	8.792	0
10	47337	8.792	0
10	47367	8.798	0
10	47369	8.798	0
10	47399	8.804	0
10	47401	8.804	0
10	47431	8.81	0
10	47433	8.81	0
10	47463	8.816	0
10	47465	8.816	0
10	47495	8.822	0
10	47497	8.822	0
10	47527	8.828	0
10	47529	8.828	0
10	47559	8.834	0
10	47561	8.834	0
10	47591	8.84	0
10	47593	8.84	0
10	47623	8.846	0
10	47625	8.846	0
10	47655	8.852	0
10	47657	8.852	0
10	47687	8.858	0
10	47689	8.858	0
10	47719	8.864	0
10	47721	8.864	0
10	47751	8.87	0
10	47753	8.87	0
10	47783	8.876	0
10	47785	8.876	0
10	47815	8.882	0
10	47817	8.882	0
10	47847	8.888	0
10	47849	8.888	0
10	47879	8.894	0
10	47881	8.894	0
10	47911	8.9	0
10	47913	8.9	0
10	47943	8.906	0
10	47945	8.906	0
10	47975	8.912	0
10	47977	8.912	0
10	48007	8.918	0
10	48009	8.918	0
10	48039	8.924	0
10	48041	8.924	0
10	48071	8.93	0
10	48073	8.93	0
10	48103	8.936	0
10	48105	8.936	0
10	48135	8.942	0
10	48137	8.942	0
10	48167	8.948	0
10	48169	8.948	0
10	48199	8.954	0
10	48201	8.954	0
10	48231	8.96	0
10	48233	8.96	0
10	48263	8.966	0
10	48265	8.966	0
10	48295	8.972	0
10	48297	8.972	0
10	48327	8.978	0
10	48329	8.978	0
10	48359	8.984	0
10	48361	8.984	0
10	48391	8.99	0
10	48393	8.99	0
10	48423	8.996	0
10	48425	8.996	0
10	48455	9.002	0
10	48457	9.002	0
10	48487	9.008	0
10	48489	9.008	0
10	48519	9.014	0
10	48521	9.014	0
10	48551	9.02	0
10	48553	9.02	0
10	48583	9.026	0
10	48585	9.026	0
10	48615	9.032	0
10	48617	9.032	0
10	48647	9.038	0
10	48649	9.038	0
10	48679	9.044	0
10	48681	9.044	0
10	48711	9.05	0
10	48713	9.05	0
10	48743	9.056	0
10	48745	9.056	0
10	48775	9.062	0
10	48777	9.062	0
10	48807	9.068	0
10	48809	9.068	0
10	48839	9.074	0
10	48841	9.074	0
10	48871	9.08	0
10	48873	9.08	0
10	48903	9.086	0
10	48905	9.086	0
10	48935	9.092	0
10	48937	9.092	0
10	48967	9.098	0
10	48969	9.098	0
10	48999	9.104	0
10	49001	9.104	0
10	49031	9.11	0
10	49033	9.11	0
10	49063	9.116	0
10	49065	9.116	0
10	49095	9.122	0
10	49097	9.122	0
10	49127	9.128	0
10	49129	9.128	0
10	49159	9.134	0
10	49161	9.134	0
10	49191	9.14	0
10	49193	9.14	0
10	49223	9.146	0
10	49225	9.146	0
10	49255	9.152	0
10	49257	9.152	0
10	49287	9.158	0
10	49289	9.158	0
10	49319	9.164	0
10	49321	9.164	0
10	49351	9.17	0
10	49353	9.17	0
10	49383	9.176	0
10	49385	9.176	0
10	49415	9.182	0
10	49417	9.182	0
10	49447	9.188	0
10	49449	9.188	0
10	49479	9.194	0
10	49481	9.194	0
10	49511	9.2	0
10	49513	9.2	0
10	49543	9.206	0
10	49545	9.206	0
10	49575	9.212	0
10	49577	9.212	0
10	49607	9.218	0
10	49609	9.218	0
10	49639	9.224	0
10	49641	9.224	0
10	49671	9.23	0
10	49673	9.23	0
10	49703	9.236	0
10	49705	9.236	0
10	49735	9.242	0
10	49737	9.242	0
10	49767	9.248	0
10	49769	9.248	0
10	49799	9.254	0
10	49801	9.254	0
10	49831	9.26	0
10	49833	9.26	0
10	49863	9.266	0
10	49865	9.266	0
10	49895	9.272	0
10	49897	9.272	0
10	49927	9.278	0
10	49929	9.278	0
10	49959	9.284	0
10	49961	9.284	0
10	49991	9.29	0
10	49993	9.29	0
10	50023	9.296	0
10	50025	9.296	0
10	50055	9.302	0
10	50057	9.302	0
10	50087	9.308	0
10	50089	9.308	0
10	50119	9.314	0
10	50121	9.314	0
10	50151	9.32	0
10	50153	9.32	0
10	50183	9.326	0
10	50185	9.326	0
10	50215	9.332	0
10	50217	9.332	0
10	50247	9.338	0
10	50249	9.338	0
10	50279	9.344	0
10	50281	9.344	0
10	50311	9.35	0
10	50313	9.35	0
10	50343	9.356	0
10	50345	9.356	0
10	50375	9.362	0
10	50377	9.362	0
10	50407	9.368	0
10	50409	9.368	0
10	50439	9.374	0
10	50441	9.374	0
10	50471	9.38	0
10	50473	9.38	0
10	50503	9.386	0
10	50505	9.386	0
10	50535	9.392	0
10	50537	9.392	0
10	50567	9.398	0
10	50569	9.398	0
10	50599	9.404	0
10	50601	9.404	0
10	50631	9.41	0
10	50633	9.41	0
10	50663	9.416	0
10	50665	9.416	0
10	50695	9.422	0
10	50697	9.422	0
10	50727	9.428	0
10	50729	9.428	0
10	50759	9.434	0
10	50761	9.434	0
10	50791	9.44	0
10	50793	9.44	0
10	50823	9.446	0
10	50825	9.446	0
10	50855	9.452	0
10	50857	9.452	0
10	50887	9.458	0
10	50889	9.458	0
10	50919	9.464	0
10	50921	9.464	0
10	50951	9.47	0
10	50953	9.47	0
10	50983	9.476	0
10	50985	9.476	0
10	51015	9.482	0
10	51017	9.482	0
10	51047	9.488	0
10	51049	9.488	0
10	51079	9.494	0
10	51081	9.494	0
10	51111	9.5	0
10	51113	9.5	0
10	51143	9.506	0
10	51145	9.506	0
10	51175	9.512	0
10	51177	9.512	0
10	51207	9.518	0
10	51209	9.518	0
10	51239	9.524	0
10	51241	9.524	0
10	51271	9.53	0
10	51273	9.53	0
10	51303	9.536	0
10	51305	9.536	0
10	51335	9.542	0
10	51337	9.542	0
10	51367	9.548	0
10	51369	9.548	0
10	51399	9.554	0
10	51401	9.554	0
10	51431	9.56	0
10	51433	9.56	0
10	51463	9.566	0
10	51465	9.566	0
10	51495	9.572	0
10	51497	9.572	0
10	51527	9.578	0
10	51529	9.578	0
10	51559	9.584	0
10	51561	9.584	0
10	51591	9.59	0
10	51593	9.59	0
10	51623	9.596	0
10	51625	9.596	0
10	51655	9.602	0
10	51657	9.602	0
10	51687	9.608	0
10	51689	9.608	0
10	51719	9.614	0
10	51721	9.614	0
10	51751	9.62	0
10	51753	9.62	0
10	51783	9.626	0
10	51785	9.626	0
10	51815	9.632	0
10	51817	9.632	0
10	51847	9.638	0
10	51849	9.638	0
10	51879	9.644	0
10	51881	9.644	0
10	51911	9.65	0
10	51913	9.65	0
10	51943	9.656	0
10	51945	9.656	0
10	51975	9.662	0
10	51977	9.662	0
10	52007	9.668	0
10	52009	9.668	0
10	52039	9.674	0
10	52041	9.674	0
10	52071	9.68	0
10	52073	9.68	0
10	52103	9.686	0
10	52105	9.686	0
10	52135	9.692	0
10	52137	9.692	0
10	52167	9.698	0
10	52169	9.698	0
10	52199	9.704	0
10	52201	9.704	0
10	52231	9.71	0
10	52233	9.71	0
10	52263	9.716	0
10	52265	9.716	0
10	52295	9.722	0
10	52297	9.722	0
10	52327	9.728	0
10	52329	9.728	0
10	52359	9.734	0
10	52361	9.734	0
10	52391	9.74	0
10	52393	9.74	0
10	52423	9.746	0
10	52425	9.746	0
10	52455	9.752	0
10	52457	9.752	0
10	52487	9.758	0
10	52489	9.758	0
10	52519	9.764	0
10	52521	9.764	0
10	52551	9.77	0
10	52553	9.77	0
10	52583	9.776	0
10	52585	9.776	0
10	52615	9.782	0
10	52617	9.782	0
10	52647	9.788	0
10	52649	9.788	0
10	52679	9.794	0
10	52681	9.794	0
10	52711	9.8	0
10	52713	9.8	0
10	52743	9.806	0
10	52745	9.806	0
10	52775	9.812	0
10	52777	9.812	0
10	52807	9.818	0
10	52809	9.818	0
10	52839	9.824	0
10	52841	9.824	0
10	52871	9.83	0
10	52873	9.83	0
10	52903	9.836	0
10	52905	9.836	0
10	52935	9.842	0
10	52937	9.842	0
10	52967	9.848	0
10	52969	9.848	0
10	52999	9.854	0
10	53001	9.854	0
10	53031	9.86	0
10	53033	9.86	0
10	53063	9.866	0
10	53065	9.866	0
10	53095	9.872	0
10	53097	9.872	0
10	53127	9.878	0
10	53129	9.878	0
10	53159	9.884	0
10	53161	9.884	0
10	53191	9.89	0
10	53193	9.89	0
10	53223	9.896	0
10	53225	9.896	0
10	53255	9.902	0
10	53257	9.902	0
10	53287	9.908	0
10	53289	9.908	0
10	53319	9.914	0
10	53321	9.914	0
10	53351	9.92	0
10	53353	9.92	0
10	53383	9.926	0
10	53385	9.926	0
10	53415	9.932	0
10	53417	9.932	0
10	53447	9.938	0
10	53449	9.938	0
10	53479	9.944	0
10	53481	9.944	0
10	53511	9.95	0
10	53513	9.95	0
10	53543	9.956	0
10	53545	9.956	0
10	53575	9.962	0
10	53577	9.962	0
10	53607	9.968	0
10	53609	9.968	0
10	53639	9.974	0
10	53641	9.974	0
10	53671	9.98	0
10	53673	9.98	0
10	53703	9.986	0
10	53705	9.986	0
10	53735	9.992	0
10	53737	9.992	0
10	53767	9.998	0
10	53769	9.998	0
10	53799	10.004	0
10	53801	10.004	0
10	53831	10.01	0
10	53833	10.01	0
10	53863	10.016	0
10	53865	10.016	0
10	53895	10.022	0
10	53897	10.022	0
10	53927	10.028	0
10	53929	10.028	0
10	53959	10.034	0
10	53961	10.034	0
10	53991	10.04	0
10	53993	10.04	0
10	54023	10.046	0
10	54025	10.046	0
10	54055	10.052	0
10	54057	10.052	0
10	54087	10.058	0
10	54089	10.058	0
10	54119	10.064	0
10	54121	10.064	0
10	54151	10.07	0
10	54153	10.07	0
10	54183	10.076	0
10	54185	10.076	0
10	54215	10.082	0
10	54217	10.082	0
10	54247	10.088	0
10	54249	10.088	0
10	54279	10.094	0
10	54281	10.094	0
10	54311	10.1	0
10	54313	10.1	0
10	54343	10.106	0
10	54345	10.106	0
10	54375	10.112	0
10	54377	10.112	0
10	54407	10.118	0
10	54409	10.118	0
10	54439	10.124	0
10	54441	10.124	0
10	54471	10.13	0
10	54473	10.13	0
10	54503	10.136	0
10	54505	10.136	0
10	54535	10.142	0
10	54537	10.142	0
10	54567	10.148	0
10	54569	10.148	0
10	54599	10.154	0
10	54601	10.154	0
10	54631	10.16	0
10	54633	10.16	0
10	54663	10.166	0
10	54665	10.166	0
10	54695	10.172	0
10	54697	10.172	0
10	54727	10.178	0
10	54729	10.178	0
10	54759	10.184	0
10	54761	10.184	0
10	54791	10.19	0
10	54793	10.19	0
10	54823	10.196	0
10	54825	10.196	0
10	54855	10.202	0
10	54857	10.202	0
10	54887	10.208	0
10	54889	10.208	0
10	54919	10.214	0
10	54921	10.214	0
10	54951	10.22	0
10	54953	10.22	0
10	54983	10.226	0
10	54985	10.226	0
10	55015	10.232	0
10	55017	10.232	0
10	55047	10.238	0
10	55049	10.238	0
10	55079	10.244	0
10	55081	10.244	0
10	55111	10.25	0
10	55113	10.25	0
10	55143	10.256	0
10	55145	10.256	0
10	55175	10.262	0
10	55177	10.262	0
10	55207	10.268	0
10	55209	10.268	0
10	55239	10.274	0
10	55241	10.274	0
10	55271	10.28	0
10	55273	10.28	0
10	55303	10.286	0
10	55305	10.286	0
10	55335	10.292	0
10	55337	10.292	0
10	55367	10.298	0
10	55369	10.298	0
10	55399	10.304	0
10	55401	10.304	0
10	55431	10.31	0
10	55433	10.31	0
10	55463	10.316	0
10	55465	10.316	0
10	55495	10.322	0
10	55497	10.322	0
10	55527	10.328	0
10	55529	10.328	0
10	55559	10.334	0
10	55561	10.334	0
10	55591	10.34	0
10	55593	10.34	0
10	55623	10.346	0
10	55625	10.346	0
10	55655	10.352	0
10	55657	10.352	0
10	55687	10.358	0
10	55689	10.358	0
10	55719	10.364	0
10	55721	10.364	0
10	55751	10.37	0
10	55753	10.37	0
10	55783	10.376	0
10	55785	10.376	0
10	55815	10.382	0
10	55817	10.382	0
10	55847	10.388	0
10	55849	10.388	0
10	55879	10.394	0
10	55881	10.394	0
10	55911	10.4	0
10	55913	10.4	0
10	55943	10.406	0
10	55945	10.406	0
10	55975	10.412	0
10	55977	10.412	0
10	56007	10.418	0
10	56009	10.418	0
10	56039	10.424	0
10	56041	10.424	0
10	56071	10.43	0
10	56073	10.43	0
10	56103	10.436	0
10	56105	10.436	0
10	56135	10.442	0
10	56137	10.442	0
10	56167	10.448	0
10	56169	10.448	0
10	56199	10.454	0
10	56201	10.454	0
10	56231	10.46	0
10	56233	10.46	0
10	56263	10.466	0
10	56265	10.466	0
10	56295	10.472	0
10	56297	10.472	0
10	56327	10.478	0
10	56329	10.478	0
10	56359	10.484	0
10	56361	10.484	0
10	56391	10.49	0
10	56393	10.49	0
10	56423	10.496	0
10	56425	10.496	0
10	56455	10.502	0
10	56457	10.502	0
10	56487	10.508	0
10	56489	10.508	0
10	56519	10.514	0
10	56521	10.514	0
10	56551	10.52	0
10	56553	10.52	0
10	56583	10.526	0
10	56585	10.526	0
10	56615	10.532	0
10	56617	10.532	0
10	56647	10.538	0
10	56649	10.538	0
10	56679	10.544	0
10	56681	10.544	0
10	56711	10.55	0
10	56713	10.55	0
10	56743	10.556	0
10	56745	10.556	0
10	56775	10.562	0
10	56777	10.562	0
10	56807	10.568	0
10	56809	10.568	0
10	56839	10.574	0
10	56841	10.574	0
10	56871	10.58	0
10	56873	10.58	0
10	56903	10.586	0
10	56905	10.586	0
10	56935	10.592	0
10	56937	10.592	0
10	56967	10.598	0
10	56969	10.598	0
10	56999	10.604	0
10	57001	10.604	0
10	57031	10.61	0
10	57033	10.61	0
10	57063	10.616	0
10	57065	10.616	0
10	57095	10.622	0
10	57097	10.622	0
10	57127	10.628	0
10	57129	10.628	0
10	57159	10.634	0
10	57161	10.634	0
10	57191	10.64	0
10	57193	10.64	0
10	57223	10.646	0
10	57225	10.646	0
10	57255	10.652	0
10	57257	10.652	0
10	57287	10.658	0
10	57289	10.658	0
10	57319	10.664	0
10	57321	10.664	0
10	57351	10.67	0
10	57353	10.67	0
10	57383	10.676	0
10	57385	10.676	0
10	57415	10.682	0
10	57417	10.682	0
10	57447	10.688	0
10	57449	10.688	0
10	57479	10.694	0
10	57481	10.694	0
10	57511	10.7	0
10	57513	10.7	0
10	57543	10.706	0
10	57545	10.706	0
10	57575	10.712	0
10	57577	10.712	0
10	57607	10.718	0
10	57609	10.718	0
10	57639	10.724	0
10	57641	10.724	0
10	57671	10.73	0
10	57673	10.73	0
10	57703	10.736	0
10	57705	10.736	0
10	57735	10.742	0
10	57737	10.742	0
10	57767	10.748	0
10	57769	10.748	0
10	57799	10.754	0
10	57801	10.754	0
10	57831	10.76	0
10	57833	10.76	0
10	57863	10.766	0
10	57865	10.766	0
10	57895	10.772	0
10	57897	10.772	0
10	57927	10.778	0
10	57929	10.778	0
10	57959	10.784	0
10	57961	10.784	0
10	57991	10.79	0
10	57993	10.79	0
10	58023	10.796	0
10	58025	10.796	0
10	58055	10.802	0
10	58057	10.802	0
10	58087	10.808	0
10	58089	10.808	0
10	58119	10.814	0
10	58121	10.814	0
10	58151	10.82	0
10	58153	10.82	0
10	58183	10.826	0
10	58185	10.826	0
10	58215	10.832	0
10	58217	10.832	0
10	58247	10.838	0
10	58249	10.838	0
10	58279	10.844	0
10	58281	10.844	0
10	58311	10.85	0
10	58313	10.85	0
10	58343	10.856	0
10	58345	10.856	0
10	58375	10.862	0
10	58377	10.862	0
10	58407	10.868	0
10	58409	10.868	0
10	58439	10.874	0
10	58441	10.874	0
10	58471	10.88	0
10	58473	10.88	0
10	58503	10.886	0
10	58505	10.886	0
10	58535	10.892	0
10	58537	10.892	0
10	58567	10.898	0
10	58569	10.898	0
10	58599	10.904	0
10	58601	10.904	0
10	58631	10.91	0
10	58633	10.91	0
10	58663	10.916	0
10	58665	10.916	0
10	58695	10.922	0
10	58697	10.922	0
10	58727	10.928	0
10	58729	10.928	0
10	58759	10.934	0
10	58761	10.934	0
10	58791	10.94	0
10	58793	10.94	0
10	58823	10.946	0
10	58825	10.946	0
10	58855	10.952	0
10	58857	10.952	0
10	58887	10.958	0
10	58889	10.958	0
10	58919	10.964	0
10	58921	10.964	0
10	58951	10.97	0
10	58953	10.97	0
10	58983	10.976	0
10	58985	10.976	0
10	59015	10.982	0
10	59017	10.982	0
10	59047	10.988	0
10	59049	10.988	0
10	59079	10.994	0
10	59081	10.994	0
10	59111	11	0
10	59113	11	0
10	59143	11.006	0
10	59145	11.006	0
10	59175	11.012	0
10	59177	11.012	0
10	59207	11.018	0
10	59209	11.018	0
10	59239	11.024	0
10	59241	11.024	0
10	59271	11.03	0
10	59273	11.03	0
10	59303	11.036	0
10	59305	11.036	0
10	59335	11.042	0
10	59337	11.042	0
10	59367	11.048	0
10	59369	11.048	0
10	59399	11.054	0
10	59401	11.054	0
10	59431	11.06	0
10	59433	11.06	0
10	59463	11.066	0
10	59465	11.066	0
10	59495	11.072	0
10	59497	11.072	0
10	59527	11.078	0
10	59529	11.078	0
10	59559	11.084	0
10	59561	11.084	0
10	59591	11.09	0
10	59593	11.09	0
10	59623	11.096	0
10	59625	11.096	0
10	59655	11.102	0
10	59657	11.102	0
10	59687	11.108	0
10	59689	11.108	0
10	59719	11.114	0
10	59721	11.114	0
10	59751	11.12	0
10	59753	11.12	0
10	59783	11.126	0
10	59785	11.126	0
10	59815	11.132	0
10	59817	11.132	0
10	59847	11.138	0
10	59849	11.138	0
10	59879	11.144	0
10	59881	11.144	0
10	59911	11.15	0
10	59913	11.15	0
10	59943	11.156	0
10	59945	11.156	0
10	59975	11.162	0
10	59977	11.162	0
10	60007	11.168	0
10	60009	11.168	0
10	60039	11.174	0
10	60041	11.174	0
10	60071	11.18	0
10	60073	11.18	0
10	60103	11.186	0
10	60105	11.186	0
10	60135	11.192	0
10	60137	11.192	0
10	60167	11.198	0
10	60169	11.198	0
10	60199	11.204	0
10	60201	11.204	0
10	60231	11.21	0
10	60233	11.21	0
10	60263	11.216	0
10	60265	11.216	0
10	60295	11.222	0
10	60297	11.222	0
10	60327	11.228	0
10	60329	11.228	0
10	60359	11.234	0
10	60361	11.234	0
10	60391	11.24	0
10	60393	11.24	0
10	60423	11.246	0
10	60425	11.246	0
10	60455	11.252	0
10	60457	11.252	0
10	60487	11.258	0
10	60489	11.258	0
10	60519	11.264	0
10	60521	11.264	0
10	60551	11.27	0
10	60553	11.27	0
10	60583	11.276	0
10	60585	11.276	0
10	60615	11.282	0
10	60617	11.282	0
10	60647	11.288	0
10	60649	11.288	0
10	60679	11.294	0
10	60681	11.294	0
10	60711	11.3	0
10	60713	11.3	0
10	60743	11.306	0
10	60745	11.306	0
10	60775	11.312	0
10	60777	11.312	0
10	60807	11.318	0
10	60809	11.318	0
10	60839	11.324	0
10	60841	11.324	0
10	60871	11.33	0
10	60873	11.33	0
10	60903	11.336	0
10	60905	11.336	0
10	60935	11.342	0
10	60937	11.342	0
10	60967	11.348	0
10	60969	11.348	0
10	60999	11.354	0
10	61001	11.354	0
10	61031	11.36	0
10	61033	11.36	0
10	61063	11.366	0
10	61065	11.366	0
10	61095	11.372	0
10	61097	11.372	0
10	61127	11.378	0
10	61129	11.378	0
[...]
10	310345	58.106	0
10	310375	58.112	0
10	310377	58.112	0
10	310407	58.118	0
10	310409	58.118	0
10	310439	58.124	0
10	310441	58.124	0
10	310471	58.13	0
10	310473	58.13	0
10	310503	58.136	0
10	310505	58.136	0
10	310535	58.142	0
10	310537	58.142	0
10	310567	58.148	0
10	310569	58.148	0
10	310599	58.154	0
10	310601	58.154	0
10	310631	58.16	0
10	310633	58.16	0
10	310663	58.166	0
10	310665	58.166	0
10	310695	58.172	0
10	310697	58.172	0
10	310727	58.178	0
10	310729	58.178	0
10	310759	58.184	0
10	310761	58.184	0
10	310791	58.19	0
10	310793	58.19	0
10	310823	58.196	0
10	310825	58.196	0
10	310855	58.202	0
10	310857	58.202	0
10	310887	58.208	0
10	310889	58.208	0
10	310919	58.214	0
10	310921	58.214	0
10	310951	58.22	0
10	310953	58.22	0
10	310983	58.226	0
10	310985	58.226	0
10	311015	58.232	0
10	311017	58.232	0
10	311047	58.238	0
10	311049	58.238	0
10	311079	58.244	0
10	311081	58.244	0
10	311111	58.25	0
10	311113	58.25	0
10	311143	58.256	0
10	311145	58.256	0
10	311175	58.262	0
10	311177	58.262	0
10	311207	58.268	0
10	311209	58.268	0
10	311239	58.274	0
10	311241	58.274	0
10	311271	58.28	0
10	311273	58.28	0
10	311303	58.286	0
10	311305	58.286	0
10	311335	58.292	0
10	311337	58.292	0
10	311367	58.298	0
10	311369	58.298	0
10	311399	58.304	0
10	311401	58.304	0
10	311431	58.31	0
10	311433	58.31	0
10	311463	58.316	0
10	311465	58.316	0
10	311495	58.322	0
10	311497	58.322	0
10	311527	58.328	0
10	311529	58.328	0
10	311559	58.334	0
10	311561	58.334	0
10	311591	58.34	0
10	311593	58.34	0
10	311623	58.346	0
10	311625	58.346	0
10	311655	58.352	0
10	311657	58.352	0
10	311687	58.358	0
10	311689	58.358	0
10	311719	58.364	0
10	311721	58.364	0
10	311751	58.37	0
10	311753	58.37	0
10	311783	58.376	0
10	311785	58.376	0
10	311815	58.382	0
10	311817	58.382	0
10	311847	58.388	0
10	311849	58.388	0
10	311879	58.394	0
10	311881	58.394	0
10	311911	58.4	0
10	311913	58.4	0
10	311943	58.406	0
10	311945	58.406	0
10	311975	58.412	0
10	311977	58.412	0
10	312007	58.418	0
10	312009	58.418	0
10	312039	58.424	0
10	312041	58.424	0
10	312071	58.43	0
10	312073	58.43	0
10	312103	58.436	0
10	312105	58.436	0
10	312135	58.442	0
10	312137	58.442	0
10	312167	58.448	0
10	312169	58.448	0
10	312199	58.454	0
10	312201	58.454	0
10	312231	58.46	0
10	312233	58.46	0
10	312263	58.466	0
10	312265	58.466	0
10	312295	58.472	0
10	312297	58.472	0
10	312327	58.478	0
10	312329	58.478	0
10	312359	58.484	0
10	312361	58.484	0
10	312391	58.49	0
10	312393	58.49	0
10	312423	58.496	0
10	312425	58.496	0
10	312455	58.502	0
10	312457	58.502	0
10	312487	58.508	0
10	312489	58.508	0
10	312519	58.514	0
10	312521	58.514	0
10	312551	58.52	0
10	312553	58.52	0
10	312583	58.526	0
10	312585	58.526	0
10	312615	58.532	0
10	312617	58.532	0
10	312647	58.538	0
10	312649	58.538	0
10	312679	58.544	0
10	312681	58.544	0
10	312711	58.55	0
10	312713	58.55	0
10	312743	58.556	0
10	312745	58.556	0
10	312775	58.562	0
10	312777	58.562	0
10	312807	58.568	0
10	312809	58.568	0
10	312839	58.574	0
10	312841	58.574	0
10	312871	58.58	0
10	312873	58.58	0
10	312903	58.586	0
10	312905	58.586	0
10	312935	58.592	0
10	312937	58.592	0
10	312967	58.598	0
10	312969	58.598	0
10	312999	58.604	0
10	313001	58.604	0
10	313031	58.61	0
10	313033	58.61	0
10	313063	58.616	0
10	313065	58.616	0
10	313095	58.622	0
10	313097	58.622	0
10	313127	58.628	0
10	313129	58.628	0
10	313159	58.634	0
10	313161	58.634	0
10	313191	58.64	0
10	313193	58.64	0
10	313223	58.646	0
10	313225	58.646	0
10	313255	58.652	0
10	313257	58.652	0
10	313287	58.658	0
10	313289	58.658	0
10	313319	58.664	0
10	313321	58.664	0
10	313351	58.67	0
10	313353	58.67	0
10	313383	58.676	0
10	313385	58.676	0
10	313415	58.682	0
10	313417	58.682	0
10	313447	58.688	0
10	313449	58.688	0
10	313479	58.694	0
10	313481	58.694	0
10	313511	58.7	0
10	313513	58.7	0
10	313543	58.706	0
10	313545	58.706	0
10	313575	58.712	0
10	313577	58.712	0
10	313607	58.718	0
10	313609	58.718	0
10	313639	58.724	0
10	313641	58.724	0
10	313671	58.73	0
10	313673	58.73	0
10	313703	58.736	0
10	313705	58.736	0
10	313735	58.742	0
10	313737	58.742	0
10	313767	58.748	0
10	313769	58.748	0
10	313799	58.754	0
10	313801	58.754	0
10	313831	58.76	0
10	313833	58.76	0
10	313863	58.766	0
10	313865	58.766	0
10	313895	58.772	0
10	313897	58.772	0
10	313927	58.778	0
10	313929	58.778	0
10	313959	58.784	0
10	313961	58.784	0
10	313991	58.79	0
10	313993	58.79	0
10	314023	58.796	0
10	314025	58.796	0
10	314055	58.802	0
10	314057	58.802	0
10	314087	58.808	0
10	314089	58.808	0
10	314119	58.814	0
10	314121	58.814	0
10	314151	58.82	0
10	314153	58.82	0
10	314183	58.826	0
10	314185	58.826	0
10	314215	58.832	0
10	314217	58.832	0
10	314247	58.838	0
10	314249	58.838	0
10	314279	58.844	0
10	314281	58.844	0
10	314311	58.85	0
10	314313	58.85	0
10	314343	58.856	0
10	314345	58.856	0
10	314375	58.862	0
10	314377	58.862	0
10	314407	58.868	0
10	314409	58.868	0
10	314439	58.874	0
10	314441	58.874	0
10	314471	58.88	0
10	314473	58.88	0
10	314503	58.886	0
10	314505	58.886	0
10	314535	58.892	0
10	314537	58.892	0
10	314567	58.898	0
10	314569	58.898	0
10	314599	58.904	0
10	314601	58.904	0
10	314631	58.91	0
10	314633	58.91	0
10	314663	58.916	0
10	314665	58.916	0
10	314695	58.922	0
10	314697	58.922	0
10	314727	58.928	0
10	314729	58.928	0
10	314759	58.934	0
10	314761	58.934	0
10	314791	58.94	0
10	314793	58.94	0
10	314823	58.946	0
10	314825	58.946	0
10	314855	58.952	0
10	314857	58.952	0
10	314887	58.958	0
10	314889	58.958	0
10	314919	58.964	0
10	314921	58.964	0
10	314951	58.97	0
10	314953	58.97	0
10	314983	58.976	0
10	314985	58.976	0
10	315015	58.982	0
10	315017	58.982	0
10	315047	58.988	0
10	315049	58.988	0
10	315079	58.994	0
10	315081	58.994	0
10	315111	59	0
10	315113	59	0
10	315143	59.006	0
10	315145	59.006	0
10	315175	59.012	0
10	315177	59.012	0
10	315207	59.018	0
10	315209	59.018	0
10	315239	59.024	0
10	315241	59.024	0
10	315271	59.03	0
10	315273	59.03	0
10	315303	59.036	0
10	315305	59.036	0
10	315335	59.042	0
10	315337	59.042	0
10	315367	59.048	0
10	315369	59.048	0
10	315399	59.054	0
10	315401	59.054	0
10	315431	59.06	0
10	315433	59.06	0
10	315463	59.066	0
10	315465	59.066	0
10	315495	59.072	0
10	315497	59.072	0
10	315527	59.078	0
10	315529	59.078	0
10	315559	59.084	0
10	315561	59.084	0
10	315591	59.09	0
10	315593	59.09	0
10	315623	59.096	0
10	315625	59.096	0
10	315655	59.102	0
10	315657	59.102	0
10	315687	59.108	0
10	315689	59.108	0
10	315719	59.114	0
10	315721	59.114	0
10	315751	59.12	0
10	315753	59.12	0
10	315783	59.126	0
10	315785	59.126	0
10	315815	59.132	0
10	315817	59.132	0
10	315847	59.138	0
10	315849	59.138	0
10	315879	59.144	0
10	315881	59.144	0
10	315911	59.15	0
10	315913	59.15	0
10	315943	59.156	0
10	315945	59.156	0
10	315975	59.162	0
10	315977	59.162	0
10	316007	59.168	0
10	316009	59.168	0
10	316039	59.174	0
10	316041	59.174	0
10	316071	59.18	0
10	316073	59.18	0
10	316103	59.186	0
10	316105	59.186	0
10	316135	59.192	0
10	316137	59.192	0
10	316167	59.198	0
10	316169	59.198	0
10	316199	59.204	0
10	316201	59.204	0
10	316231	59.21	0
10	316233	59.21	0
10	316263	59.216	0
10	316265	59.216	0
10	316295	59.222	0
10	316297	59.222	0
10	316327	59.228	0
10	316329	59.228	0
10	316359	59.234	0
10	316361	59.234	0
10	316391	59.24	0
10	316393	59.24	0
10	316423	59.246	0
10	316425	59.246	0
10	316455	59.252	0
10	316457	59.252	0
10	316487	59.258	0
10	316489	59.258	0
10	316519	59.264	0
10	316521	59.264	0
10	316551	59.27	0
10	316553	59.27	0
10	316583	59.276	0
10	316585	59.276	0
10	316615	59.282	0
10	316617	59.282	0
10	316647	59.288	0
10	316649	59.288	0
10	316679	59.294	0
10	316681	59.294	0
10	316711	59.3	0
10	316713	59.3	0
10	316743	59.306	0
10	316745	59.306	0
10	316775	59.312	0
10	316777	59.312	0
10	316807	59.318	0
10	316809	59.318	0
10	316839	59.324	0
10	316841	59.324	0
10	316871	59.33	0
10	316873	59.33	0
10	316903	59.336	0
10	316905	59.336	0
10	316935	59.342	0
10	316937	59.342	0
10	316967	59.348	0
10	316969	59.348	0
10	316999	59.354	0
10	317001	59.354	0
10	317031	59.36	0
10	317033	59.36	0
10	317063	59.366	0
10	317065	59.366	0
10	317095	59.372	0
10	317097	59.372	0
10	317127	59.378	0
10	317129	59.378	0
10	317159	59.384	0
10	317161	59.384	0
10	317191	59.39	0
10	317193	59.39	0
10	317223	59.396	0
10	317225	59.396	0
10	317255	59.402	0
10	317257	59.402	0
10	317287	59.408	0
10	317289	59.408	0
10	317319	59.414	0
10	317321	59.414	0
10	317351	59.42	0
10	317353	59.42	0
10	317383	59.426	0
10	317385	59.426	0
10	317415	59.432	0
10	317417	59.432	0
10	317447	59.438	0
10	317449	59.438	0
10	317479	59.444	0
10	317481	59.444	0
10	317511	59.45	0
10	317513	59.45	0
10	317543	59.456	0
10	317545	59.456	0
10	317575	59.462	0
10	317577	59.462	0
10	317607	59.468	0
10	317609	59.468	0
10	317639	59.474	0
10	317641	59.474	0
10	317671	59.48	0
10	317673	59.48	0
10	317703	59.486	0
10	317705	59.486	0
10	317735	59.492	0
10	317737	59.492	0
10	317767	59.498	0
10	317769	59.498	0
10	317799	59.504	0
10	317801	59.504	0
10	317831	59.51	0
10	317833	59.51	0
10	317863	59.516	0
10	317865	59.516	0
10	317895	59.522	0
10	317897	59.522	0
10	317927	59.528	0
10	317929	59.528	0
10	317959	59.534	0
10	317961	59.534	0
10	317991	59.54	0
10	317993	59.54	0
10	318023	59.546	0
10	318025	59.546	0
10	318055	59.552	0
10	318057	59.552	0
10	318087	59.558	0
10	318089	59.558	0
10	318119	59.564	0
10	318121	59.564	0
10	318151	59.57	0
10	318153	59.57	0
10	318183	59.576	0
10	318185	59.576	0
10	318215	59.582	0
10	318217	59.582	0
10	318247	59.588	0
10	318249	59.588	0
10	318279	59.594	0
10	318281	59.594	0
10	318311	59.6	0
10	318313	59.6	0
10	318343	59.606	0
10	318345	59.606	0
10	318375	59.612	0
10	318377	59.612	0
10	318407	59.618	0
10	318409	59.618	0
10	318439	59.624	0
10	318441	59.624	0
10	318471	59.63	0
10	318473	59.63	0
10	318503	59.636	0
10	318505	59.636	0
10	318535	59.642	0
10	318537	59.642	0
10	318567	59.648	0
10	318569	59.648	0
10	318599	59.654	0
10	318601	59.654	0
10	318631	59.66	0
10	318633	59.66	0
10	318663	59.666	0
10	318665	59.666	0
10	318695	59.672	0
10	318697	59.672	0
10	318727	59.678	0
10	318729	59.678	0
10	318759	59.684	0
10	318761	59.684	0
10	318791	59.69	0
10	318793	59.69	0
10	318823	59.696	0
10	318825	59.696	0
10	318855	59.702	0
10	318857	59.702	0
10	318887	59.708	0
10	318889	59.708	0
10	318919	59.714	0
10	318921	59.714	0
10	318951	59.72	0
10	318953	59.72	0
10	318983	59.726	0
10	318985	59.726	0
10	319015	59.732	0
10	319017	59.732	0
10	319047	59.738	0
10	319049	59.738	0
10	319079	59.744	0
10	319081	59.744	0
10	319111	59.75	0
10	319113	59.75	0
10	319143	59.756	0
10	319145	59.756	0
10	319175	59.762	0
10	319177	59.762	0
10	319207	59.768	0
10	319209	59.768	0
10	319239	59.774	0
10	319241	59.774	0
10	319271	59.78	0
10	319273	59.78	0
10	319303	59.786	0
10	319305	59.786	0
10	319335	59.792	0
10	319337	59.792	0
10	319367	59.798	0
10	319369	59.798	0
10	319399	59.804	0
10	319401	59.804	0
10	319431	59.81	0
10	319433	59.81	0
10	319463	59.816	0
10	319465	59.816	0
10	319495	59.822	0
10	319497	59.822	0
10	319527	59.828	0
10	319529	59.828	0
10	319559	59.834	0
10	319561	59.834	0
10	319591	59.84	0
10	319593	59.84	0
10	319623	59.846	0
10	319625	59.846	0
10	319655	59.852	0
10	319657	59.852	0
10	319687	59.858	0
10	319689	59.858	0
10	319719	59.864	0
10	319721	59.864	0
10	319751	59.87	0
10	319753	59.87	0
10	319783	59.876	0
10	319785	59.876	0
10	319815	59.882	0
10	319817	59.882	0
10	319847	59.888	0
10	319849	59.888	0
10	319879	59.894	0
10	319881	59.894	0
10	319911	59.9	0
10	319913	59.9	0
10	319943	59.906	0
10	319945	59.906	0
10	319975	59.912	0
10	319977	59.912	0
10	320007	59.918	0
10	320009	59.918	0
10	320039	59.924	0
10	320041	59.924	0
10	320071	59.93	0
10	320073	59.93	0
10	320103	59.936	0
10	320105	59.936	0
10	320135	59.942	0
10	320137	59.942	0
10	320167	59.948	0
10	320169	59.948	0
10	320199	59.954	0
10	320201	59.954	0
10	320231	59.96	0
10	320233	59.96	0
10	320263	59.966	0
10	320265	59.966	0
10	320295	59.972	0
10	320297	59.972	0
10	320327	59.978	0
10	320329	59.978	0
10	320359	59.984	0
10	320361	59.984	0
10	320391	59.99	0
10	320393	59.99	0
10	320423	59.996	0
10	320425	59.996	0
11	5421	1.008	47
11	5485	1.009	0
11	5612	1.022	75
11	5694	1.027	75
11	5702	1.028	474
11	5771	1.029	0
11	5888	1.042	75
11	5942	1.047	75
11	5950	1.048	111
11	6015	1.049	0
12	5372	1.001	0
12	5376	1.002	0
12	5421	1.008	0
12	5421	1.008	0
12	5492	1.009	0
12	5558	1.015	0
12	5560	1.016	0
12	5601	1.02	0
12	5605	1.021	0
12	5612	1.022	0
12	5612	1.022	0
12	5694	1.027	0
12	5694	1.027	0
12	5702	1.028	0
12	5778	1.029	0
12	5834	1.035	0
12	5836	1.036	0
12	5879	1.04	0
12	5881	1.041	0
12	5888	1.042	0
12	5888	1.042	0
12	5942	1.047	0
12	5942	1.047	0
12	5950	1.048	0
12	6022	1.049	0
13	5421	1.008	25
13	5485	1.009	26
13	5612	1.022	25
13	5694	1.027	25
13	5771	1.029	26
13	5888	1.042	25
13	5942	1.047	25
13	6015	1.049	26
15	5409	1.005	13
15	5592	1.019	13
15	5678	1.024	13
15	5684	1.025	13
15	5868	1.039	13
15	5924	1.044	13
15	5932	1.045	13
17	5432	1.008	72
17	5623	1.022	68
17	5712	1.028	604
17	5960	1.048	282
19	5432	1.008	0
19	5623	1.022	0
19	5712	1.028	0
19	5960	1.048	0
20	0	0	0
21	0	0	0
21	5433	1.008	1
21	5437	1.0080000632	0
21	5624	1.022	1
21	5634	1.02200006	0
21	5713	1.028	1
21	5725	1.0280004888	0
21	5961	1.048	1
21	5969	1.0480002312	0
22	5433	1.008	79
22	5624	1.022	75
22	5713	1.028	611
22	5961	1.048	289
23	5474	1.0080005896	79
23	5762	1.0280018568	75
23	6006	1.048001084	75
26	5433	1.008	72
26	5624	1.022	68
26	5713	1.028	604
26	5961	1.048	282
27	5474	1.0080005896	72
27	5762	1.0280018568	68
27	6006	1.048001084	68
30	5469	1.0080004764	52
30	5757	1.0280017468	48
30	6001	1.048000974	48
31	5441	1.0080001132	52
31	5638	1.02200011	48
31	5729	1.0280005388	584
31	5973	1.0480002812	262
32	5441	1.0080001132	1
32	5638	1.02200011	2
32	5729	1.0280005388	3
32	5973	1.0480002812	4
40	5471	1.0080004764	72
40	5759	1.0280017468	68
40	6003	1.048000974	68
42	5471	1.0080004764	0
42	5759	1.0280017468	0
42	6003	1.048000974	0
43	0	0	0
44	0	0	0
44	5472	1.0080004764	1
44	5473	1.0080005396	0
44	5760	1.0280017468	1
44	5761	1.0280018068	0
44	6004	1.048000974	1
44	6005	1.048001034	0
45	5472	1.0080004764	79
45	5760	1.0280017468	75
45	6004	1.048000974	75
46	5438	1.0080001132	79
46	5635	1.02200011	75
46	5726	1.0280005388	611
46	5970	1.0480002812	289
49	5472	1.0080004764	72
49	5760	1.0280017468	68
49	6004	1.048000974	68
50	5438	1.0080001132	72
50	5635	1.02200011	68
50	5726	1.0280005388	604
50	5970	1.0480002812	282
51	5443	1.0080001132	44
51	5640	1.02200011	40
51	5731	1.0280005388	576
51	5975	1.0480002812	254
53	5443	1.0080001132	0
53	5640	1.02200011	0
53	5731	1.0280005388	0
53	5975	1.0480002812	0
54	0	0	0
55	0	0	0
55	5444	1.0080001132	1
55	5445	1.008000154	0
55	5641	1.02200011	1
55	5642	1.0220001476	0
55	5732	1.0280005388	1
55	5733	1.0280010052	0
55	5976	1.0480002812	1
55	5977	1.04800049	0
56	5444	1.0080001132	51
56	5641	1.02200011	47
56	5732	1.0280005388	583
56	5976	1.0480002812	261
57	5466	1.0080004764	51
57	5754	1.0280017468	47
57	5998	1.048000974	47
60	5444	1.0080001132	44
60	5641	1.02200011	40
60	5732	1.0280005388	576
60	5976	1.0480002812	254
61	5466	1.0080004764	44
61	5754	1.0280017468	40
61	5998	1.048000974	40
67	5463	1.0080003856	44
67	5751	1.0280016592	40
67	5995	1.0480008864	40
69	5463	1.0080003856	0
69	5751	1.0280016592	0
69	5995	1.0480008864	0
70	0	0	0
71	0	0	0
71	5464	1.0080003856	1
71	5465	1.0080004264	0
71	5752	1.0280016592	1
71	5753	1.0280016968	0
71	5996	1.0480008864	1
71	5997	1.048000924	0
72	5464	1.0080003856	51
72	5752	1.0280016592	47
72	5996	1.0480008864	47
73	5446	1.008000204	51
73	5643	1.0220001976	47
73	5734	1.0280010552	583
73	5978	1.04800054	261
76	5464	1.0080003856	44
76	5752	1.0280016592	40
76	5996	1.0480008864	40
77	5446	1.008000204	44
77	5643	1.0220001976	40
77	5734	1.0280010552	576
77	5978	1.04800054	254
78	5449	1.008000204	44
78	5646	1.0220001976	40
78	5737	1.0280010552	576
78	5981	1.04800054	254
80	5449	1.008000204	0
80	5646	1.0220001976	0
80	5737	1.0280010552	0
80	5981	1.04800054	0
81	0	0	0
82	0	0	0
82	5450	1.008000204	1
82	5451	1.0080002448	0
82	5647	1.0220001976	1
82	5648	1.0220002352	0
82	5738	1.0280010552	1
82	5739	1.0280015216	0
82	5982	1.04800054	1
82	5983	1.0480007488	0
83	5450	1.008000204	51
83	5647	1.0220001976	47
83	5738	1.0280010552	583
83	5982	1.04800054	261
84	5460	1.0080003856	51
84	5748	1.0280016592	47
84	5992	1.0480008864	47
87	5450	1.008000204	44
87	5647	1.0220001976	40
87	5738	1.0280010552	576
87	5982	1.04800054	254
88	5460	1.0080003856	44
88	5748	1.0280016592	40
88	5992	1.0480008864	40
97	5457	1.0080002948	44
97	5745	1.0280015716	40
97	5989	1.0480007988	40
99	5457	1.0080002948	0
99	5745	1.0280015716	0
99	5989	1.0480007988	0
100	0	0	0
101	0	0	0
101	5458	1.0080002948	1
101	5459	1.0080003356	0
101	5746	1.0280015716	1
101	5747	1.0280016092	0
101	5990	1.0480007988	1
101	5991	1.0480008364	0
102	5458	1.0080002948	51
102	5746	1.0280015716	47
102	5990	1.0480007988	47
103	5452	1.0080002948	51
103	5649	1.0220002852	47
103	5740	1.0280015716	583
103	5984	1.0480007988	261
106	5458	1.0080002948	44
106	5746	1.0280015716	40
106	5990	1.0480007988	40
107	5452	1.0080002948	44
107	5649	1.0220002852	40
107	5740	1.0280015716	576
107	5984	1.0480007988	254
109	5527	1.013	750
111	5354	1	1
112	5358	1	44
112	5530	1.013	40
112	5535	1.013	576
112	5812	1.033	254
113	5522	1.013	45
113	5806	1.033	41
113	6054	1.053	41
114	5522	1.013	44
114	5806	1.033	40
114	6054	1.053	40
115	5358	1	45
115	5530	1.013	41
115	5535	1.013	577
115	5812	1.033	255
116	5361	1	45
116	5396	1.004	47
116	5536	1.013	41
116	5539	1.013	577
116	5582	1.018	75
116	5659	1.023	75
116	5673	1.024	474
116	5815	1.033	255
116	5856	1.038	75
116	5903	1.043	75
116	5919	1.044	111
117	5382	1.002	0
117	5390	1.003	0
117	5495	1.009	0
117	5497	1.009	0
117	5508	1.01	0
117	5570	1.016	0
117	5576	1.017	0
117	5611	1.021	0
117	5633	1.022	0
117	5665	1.023	0
117	5667	1.023	0
117	5722	1.028	0
117	5724	1.028	0
117	5782	1.029	0
117	5788	1.03	0
117	5842	1.036	0
117	5848	1.037	0
117	5887	1.041	0
117	5897	1.042	0
117	5909	1.043	0
117	5911	1.043	0
117	5966	1.048	0
117	5968	1.048	0
117	6026	1.049	0
117	6034	1.05	0
118	5392	1.004	0
118	5518	1.013	47
118	5578	1.018	0
118	5655	1.023	0
118	5669	1.024	0
118	5802	1.033	43
118	5852	1.038	0
118	5899	1.043	0
118	5915	1.044	0
118	6050	1.053	43
119	5363	1	0
119	5399	1.004	0
119	5518	1.013	0
119	5545	1.014	0
119	5585	1.018	0
119	5588	1.019	0
119	5662	1.023	0
119	5676	1.024	0
119	5802	1.033	0
119	5819	1.034	0
119	5859	1.038	0
119	5864	1.039	0
119	5906	1.043	0
119	5922	1.044	0
119	6050	1.053	0
121	5507	1.01	15
121	5787	1.03	15
121	6033	1.05	15
142	5439	0	0
143	5439	0	0
144	5447	0	0
145	5447	0	0
146	5461	0	0
147	5461	0	0
148	5453	0	0
149	5453	0	0
150	5455	1.0080002948	7504
150	5652	1.0220002852	7504
151	5455	1.0080002948	7504
151	5743	1.0280015716	7504
151	5987	1.0480007988	7504
152	5455	1.0080002948	257505
152	5455	1.0080002948	257505
152	5743	1.0280015716	258041
152	5987	1.0480007988	258255
154	5455	1.0080002948	250001
154	5743	1.0280015716	250537
154	5987	1.0480007988	250751
155	5455	1.0080002948	250000
155	5652	1.0220002852	250001
155	5743	1.0280015716	250001
155	5987	1.0480007988	250537
156	5455	1.0080002948	0
156	5652	1.0220002852	252001
156	5743	1.0280015716	252001
156	5987	1.0480007988	252001
157	5652	1.0220002852	0
158	5743	1.0280015716	0
158	5987	1.0480007988	0
165	5455	1.0080002948	0
165	5743	1.0280015716	0
165	5743	1.0280015716	0
165	5987	1.0480007988	0
165	5987	1.0480007988	0
174	5525	1.013	7504
174	5809	1.033	7504
174	6057	1.053	7504
175	5355	1	7504
175	5525	1.013	7504
175	5529	1.013	7504
175	5809	1.033	7504
176	5355	1	7504
176	5525	1.013	259505
176	5525	1.013	259505
176	5529	1.013	259505
176	5809	1.033	259505
177	5529	1.013	250001
177	5809	1.033	250537
178	5355	1	0
178	5525	1.013	252001
178	5529	1.013	252001
178	5809	1.033	252001
179	5525	1.013	252000
179	5809	1.033	252001
179	6057	1.053	252001
180	5525	1.013	250001
180	5809	1.033	250537
180	6057	1.053	250751
181	5529	1.013	536
181	5809	1.033	0
181	5809	1.033	214
181	6057	1.053	0
182	5809	1.033	0
182	6057	1.053	0
189	5355	1	0
189	5525	1.013	0
189	5529	1.013	0
189	5809	1.033	0
191	5809	1.033	1072
191	6057	1.053	1608
193	5809	1.033	0.02
193	6057	1.053	0.02
194	5809	1.033	0.0025
194	6057	1.053	0.0046875
195	5809	1.033	0.65875
195	6057	1.053	0.57859375
196	5809	1.033	2.6375
196	6057	1.053	2.3190625
