file 3487 1486136322                                            
version 2
run Test-0-20170203-16:38:40-11944
attr configname Test
attr datetime 20170203-16:38:40
attr experiment Test
attr inifile omnetpp.ini
attr iterationvars ""
attr iterationvars2 $repetition=0
attr measurement ""
attr network LTECell
attr processid 11944
attr repetition 0
attr replication #0
attr resultdir results
attr runnumber 0
attr seedset 0
param **.channelControl.alpha 1.0
param **.channelControl.carrierFrequency 2100e+6Hz
param **.channelControl.pMax 10W
param **.deployer.numRbDl 50
param **.deployer.numRbUl 50
param **.fbDelay 1
param **.feedbackComputation "xmldoc(\"config_channel.xml\")"
param **.mobility.constraintAreaMaxZ 0m
param **.mobility.constraintAreaMinZ 0m
param **.nic.phy.channelModel "xmldoc(\"config_channel.xml\")"
param **.numBands 50
param **.routingRecorder.enabled false
param **.ueD2DRx[0].numTcpApps 1
param **.ueD2DRx[0].tcpApp[0].localPort 1000
param **.ueD2DRx[0].tcpApp[0].typename "\"TCPGenericSrvApp\""
param **.ueD2DTx[0].numTcpApps 1
param **.ueD2DTx[0].tcpApp[0].connectAddress "\"host2\""
param **.ueD2DTx[0].tcpApp[0].connectPort 1000
param **.ueD2DTx[0].tcpApp[0].idleInterval exponential(3s)
param **.ueD2DTx[0].tcpApp[0].replyLength exponential(1MB)
param **.ueD2DTx[0].tcpApp[0].requestLength 750B
param **.ueD2DTx[0].tcpApp[0].thinkTime 0s
param **.ueD2DTx[0].tcpApp[0].typename "\"TCPBasicClientApp\""
param *.eNodeB.mobility.initFromDisplayString false
param *.eNodeB.mobility.initialX 300m
param *.eNodeB.mobility.initialY 300m
param *.numUeCell 0
param *.numUeD2DRx 1
param *.numUeD2DTx 1
param *.ue*[0].macCellId 1
param *.ue*[0].masterId 1
param *.ue*[0].mobility.initFromDisplayString false
param *.ueD2DRx[0].mobility.initialX 310m
param *.ueD2DRx[0].mobility.initialY 350m
param *.ueD2DTx[0].mobility.initialX 290m
param *.ueD2DTx[0].mobility.initialY 350m

vector 8  LTECell.server.ppp[0].queue  queueLength:vector  ETV
attr interpolationmode  sample-hold
attr title  "queue length, vector"
vector 9  LTECell.server.ppp[0].ppp  txState:vector  ETV
attr interpolationmode  sample-hold
attr title  "tx state, vector"
vector 24  LTECell.router.ppp[0].queue  queueLength:vector  ETV
attr interpolationmode  sample-hold
attr title  "queue length, vector"
vector 25  LTECell.router.ppp[0].ppp  txState:vector  ETV
attr interpolationmode  sample-hold
attr title  "tx state, vector"
vector 35  LTECell.router.ppp[1].queue  queueLength:vector  ETV
attr interpolationmode  sample-hold
attr title  "queue length, vector"
vector 36  LTECell.router.ppp[1].ppp  txState:vector  ETV
attr interpolationmode  sample-hold
attr title  "tx state, vector"
vector 56  LTECell.pgw.ppp[0].queue  queueLength:vector  ETV
attr interpolationmode  sample-hold
attr title  "queue length, vector"
vector 57  LTECell.pgw.ppp[0].ppp  txState:vector  ETV
attr interpolationmode  sample-hold
attr title  "tx state, vector"
vector 67  LTECell.pgw.pppInterface.queue  queueLength:vector  ETV
attr interpolationmode  sample-hold
attr title  "queue length, vector"
vector 68  LTECell.pgw.pppInterface.ppp  txState:vector  ETV
attr interpolationmode  sample-hold
attr title  "tx state, vector"
vector 95  LTECell.eNodeB.ppp.queue  queueLength:vector  ETV
attr interpolationmode  sample-hold
attr title  "queue length, vector"
vector 96  LTECell.eNodeB.ppp.ppp  txState:vector  ETV
attr interpolationmode  sample-hold
attr title  "tx state, vector"
8	3381 8 0 0 0 0 1 0 0 0 0
9	3389 8 0 0 0 0 1 0 0 0 0
24	3397 9 0 0 0 0 1 0 0 0 0
25	3406 9 0 0 0 0 1 0 0 0 0
35	3415 9 0 0 0 0 1 0 0 0 0
36	3424 9 0 0 0 0 1 0 0 0 0
56	3433 9 0 0 0 0 1 0 0 0 0
57	3442 9 0 0 0 0 1 0 0 0 0
67	3451 9 0 0 0 0 1 0 0 0 0
68	3460 9 0 0 0 0 1 0 0 0 0
95	3469 9 0 0 0 0 1 0 0 0 0
96	3478 9 0 0 0 0 1 0 0 0 0
